Circuit: * C:\Users\Regan\OneDrive\Documents\GitHub\Team7\310\310_Phase3.asc

WARNING: Node NC_01 is floating.

WARNING: Less than two connections to node NC_01.  This node is used by J:U9:2.
Early termination of direct N-R iteration.
Direct Newton iteration failed to find .op point.  (Use ".option noopiter" to skip.)
Starting Gmin stepping
Gmin = 10
vernier = 0.5
vernier = 0.25
Gmin = 2.09715
vernier = 0.125
vernier = 0.0625
vernier = 0.03125
vernier = 0.015625
vernier = 0.0078125
vernier = 0.00390625
vernier = 0.00195313
vernier = 0.000976563
vernier = 0.000488281
Gmin = 0
Gmin = 0
Gmin stepping failed

Starting source stepping with srcstepmethod=0
Source Step = 3.0303%
Source Step = 9.84848%
Source Step = 17.4242%
Source Step = 25%
Source Step = 32.5758%
Source Step = 40.1515%
vernier = 0.375
Source Step = 50.7576%
Source Step = 62.1212%
Source Step = 73.4848%
Source Step = 84.8485%
Source Step = 96.2121%
vernier = 0.5625
Source stepping succeeded in finding the operating point.

Heightened Def Con from 0.0001 to 0.0001
Heightened Def Con from 0.0833 to 0.0833
Heightened Def Con from 0.0851 to 0.0851
Heightened Def Con from 0.0946001 to 0.0946001

Date: Mon Apr 08 17:42:01 2024
Total elapsed time: 83.195 seconds.

tnom = 27
temp = 27
method = modified trap
totiter = 807268
traniter = 805213
tranpoints = 253807
accept = 180050
rejected = 73761
matrix size = 249
fillins = 2815
solver = Normal
Thread vector: 25.4/19.1[5] 14.3/10.8[5] 12.5/7.4[5] 2.6/9.2[1]  2592/500
Matrix Compiler1: 428.00 KB object code size  136.0/50.7/[45.8]
Matrix Compiler2: 65.73 KB object code size  23.9/11.0/[5.2]

