Circuit: * C:\Users\Regan\OneDrive\Documents\GitHub\Team7\310\310_Phase3.asc

WARNING: Node NC_01 is floating.

WARNING: Less than two connections to node NC_01.  This node is used by J:U9:2.
Early termination of direct N-R iteration.
Direct Newton iteration failed to find .op point.  (Use ".option noopiter" to skip.)
Starting Gmin stepping
Gmin = 10
vernier = 0.5
vernier = 0.25
Gmin = 2.09715
vernier = 0.125
vernier = 0.0625
vernier = 0.03125
vernier = 0.015625
vernier = 0.0078125
vernier = 0.00390625
vernier = 0.00195313
vernier = 0.000976563
vernier = 0.000488281
Gmin = 0
Gmin = 0
Gmin stepping failed

Starting source stepping with srcstepmethod=0
Source Step = 3.0303%
Source Step = 33.3333%
Source Step = 63.6364%
Source Step = 93.9394%
Source stepping succeeded in finding the operating point.

Heightened Def Con from 0.0001 to 0.0001

Date: Wed Apr 17 15:26:11 2024
Total elapsed time: 17.028 seconds.

tnom = 27
temp = 27
method = modified trap
totiter = 128496
traniter = 126822
tranpoints = 33540
accept = 24540
rejected = 9001
matrix size = 195
fillins = 2869
solver = Normal
Thread vector: 24.5/17.5[4] 13.2/7.9[4] 8.4/6.2[4] 2.2/5.8[1]  2592/500
Matrix Compiler1: 577.88 KB object code size  178.5/75.9/[63.5]
Matrix Compiler2: 61.90 KB object code size  27.1/12.5/[5.3]

