Circuit: * C:\Users\Regan\OneDrive\Documents\GitHub\Team7\310\310_Phase3.asc

Early termination of direct N-R iteration.
Direct Newton iteration failed to find .op point.  (Use ".option noopiter" to skip.)
Starting Gmin stepping
Gmin = 10
Gmin = 1.07374
vernier = 0.5
vernier = 0.25
vernier = 0.125
vernier = 0.0625
vernier = 0.03125
vernier = 0.015625
Gmin = 1.26323
vernier = 0.0078125
vernier = 0.00390625
vernier = 0.00195313
vernier = 0.000976563
vernier = 0.000488281
Gmin = 0
Gmin stepping failed

Starting source stepping with srcstepmethod=0
Source Step = 3.0303%
Source Step = 33.3333%
Source Step = 40.1515%
Source Step = 47.7273%
Source Step = 55.303%
Source Step = 62.8788%
Source Step = 70.4545%
vernier = 0.375
Source Step = 81.0606%
Source Step = 92.4242%
Source stepping succeeded in finding the operating point.

Heightened Def Con from 0.001 to 0.001
Heightened Def Con from 0.0016 to 0.0016
Heightened Def Con from 0.0018 to 0.0018
Heightened Def Con from 0.002 to 0.002
Heightened Def Con from 0.0024 to 0.0024
Heightened Def Con from 0.0026 to 0.0026
Heightened Def Con from 0.0028 to 0.0028
Heightened Def Con from 0.0028 to 0.0028
Heightened Def Con from 0.0028 to 0.0028
Heightened Def Con from 0.00280004 to 0.00280005
Heightened Def Con from 0.003 +to 0.003
Heightened Def Con from 0.003 to 0.003
Heightened Def Con from 0.003 to 0.003
Heightened Def Con from 0.00300001 to 0.00300002
Heightened Def Con from 0.00300003 to 0.00300003
Heightened Def Con from 0.00300004 to 0.00300004
Heightened Def Con from 0.00300008 to 0.00300008
Heightened Def Con from 0.00300011 to 0.00300011
Heightened Def Con from 0.00300011 to 0.00300011
Heightened Def Con from 0.00300011 to 0.00300012
Heightened Def Con from 0.00300015 to 0.00300015
Heightened Def Con from 0.00300015 to 0.00300015
Heightened Def Con from 0.00300015 to 0.00300016
Heightened Def Con from 0.00300021 to 0.00300021
Heightened Def Con from 0.00300021 to 0.00300021
Heightened Def Con from 0.00300023 to 0.00300023
Heightened Def Con from 0.0032 to 0.0032
Heightened Def Con from 0.0032 to 0.0032
Heightened Def Con from 0.0032 to 0.0032
Heightened Def Con from 0.0032 to 0.0032
Heightened Def Con from 0.00320006 to 0.00320006
Heightened Def Con from 0.0034 +to 0.0034
Heightened Def Con from 0.0034 to 0.0034
Heightened Def Con from 0.0034 to 0.0034
Heightened Def Con from 0.0034 to 0.0034
Heightened Def Con from 0.0034 to 0.00340001
Heightened Def Con from 0.00340001 to 0.00340001
Heightened Def Con from 0.00340002 to 0.00340002
Heightened Def Con from 0.00340005 to 0.00340005
Heightened Def Con from 0.00340005 to 0.00340005
Heightened Def Con from 0.00340006 to 0.00340006
Heightened Def Con from 0.0036 +to 0.0036
Heightened Def Con from 0.0036 to 0.0036
Heightened Def Con from 0.0036 to 0.0036
Heightened Def Con from 0.00360003 to 0.00360003
Heightened Def Con from 0.0038 to 0.0038
Heightened Def Con from 0.0038 to 0.0038
Heightened Def Con from 0.0038 to 0.0038
Heightened Def Con from 0.00380002 to 0.00380002
Heightened Def Con from 0.00380004 to 0.00380004
Heightened Def Con from 0.00380019 to 0.00380019
Heightened Def Con from 0.0038002 to 0.0038002
Heightened Def Con from 0.0038002 to 0.0038002
Heightened Def Con from 0.004 +to 0.004
Heightened Def Con from 0.004 to 0.004
Heightened Def Con from 0.004 to 0.004
Heightened Def Con from 0.004 to 0.004
Heightened Def Con from 0.004 to 0.004
Heightened Def Con from 0.00400001 to 0.00400001
Heightened Def Con from 0.00400018 to 0.00400018
Heightened Def Con from 0.00400018 to 0.00400018
Heightened Def Con from 0.00400018 to 0.00400018
Heightened Def Con from 0.00400018 to 0.00400018
Heightened Def Con from 0.00400018 to 0.00400018
Heightened Def Con from 0.00400018 to 0.00400018
Heightened Def Con from 0.00400018 to 0.00400018
Heightened Def Con from 0.00400018 to 0.00400019
Heightened Def Con from 0.00400019 to 0.00400019
Heightened Def Con from 0.00400023 to 0.00400024
Heightened Def Con from 0.00400025 to 0.00400025
Heightened Def Con from 0.00400025 to 0.00400026
Heightened Def Con from 0.00400026 to 0.00400026
Heightened Def Con from 0.0042 to 0.0042
Heightened Def Con from 0.0042 to 0.0042
Heightened Def Con from 0.0044 +to 0.0044
Heightened Def Con from 0.0044 to 0.0044
Heightened Def Con from 0.0044 to 0.0044
Heightened Def Con from 0.0044 to 0.0044
Heightened Def Con from 0.0044 to 0.00440001
Heightened Def Con from 0.00440001 to 0.00440001
Heightened Def Con from 0.00440002 to 0.00440002
Heightened Def Con from 0.00440002 to 0.00440002
Heightened Def Con from 0.00440002 to 0.00440002
Heightened Def Con from 0.00440002 to 0.00440002
Heightened Def Con from 0.00440002 +to 0.00440002
Heightened Def Con from 0.00440003 to 0.00440003
Heightened Def Con from 0.00440003 to 0.00440003
Heightened Def Con from 0.00440004 to 0.00440004
Heightened Def Con from 0.00440013 to 0.00440013
Heightened Def Con from 0.00440013 to 0.00440013
Heightened Def Con from 0.00440013 to 0.00440014
Heightened Def Con from 0.00440015 to 0.00440015
Heightened Def Con from 0.00440028 to 0.00440028
Heightened Def Con from 0.0046 to 0.0046
Heightened Def Con from 0.0046 to 0.0046
Heightened Def Con from 0.0046 to 0.0046
Heightened Def Con from 0.0046 to 0.0046
Heightened Def Con from 0.0046 to 0.0046
Heightened Def Con from 0.00460001 to 0.00460001
Heightened Def Con from 0.00460001 to 0.00460001
Heightened Def Con from 0.0046001 to 0.0046001
Heightened Def Con from 0.0046001 to 0.0046001
Heightened Def Con from 0.0046001 to 0.0046001
Heightened Def Con from 0.0046001 to 0.0046001
Heightened Def Con from 0.0046001 to 0.0046001
Heightened Def Con from 0.0046001 to 0.00460011
Heightened Def Con from 0.00460012 to 0.00460012
Heightened Def Con from 0.00460012 to 0.00460012
Heightened Def Con from 0.00460013 to 0.00460013
Heightened Def Con from 0.00460014 to 0.00460014
Heightened Def Con from 0.00460019 to 0.00460019
Heightened Def Con from 0.00460027 to 0.00460027
Heightened Def Con from 0.00460027 to 0.00460027
Heightened Def Con from 0.00460028 to 0.00460028
Heightened Def Con from 0.00460028 to 0.00460028
Heightened Def Con from 0.0048 +to 0.0048
Heightened Def Con from 0.0048 to 0.0048
Heightened Def Con from 0.0048 to 0.0048
Heightened Def Con from 0.0048 to 0.0048
Heightened Def Con from 0.0048 to 0.0048
Heightened Def Con from 0.0048 to 0.00480001
Heightened Def Con from 0.00480001 to 0.00480001
Heightened Def Con from 0.00480001 to 0.00480001
Heightened Def Con from 0.00480001 to 0.00480001
Heightened Def Con from 0.00480001 to 0.00480002
Heightened Def Con from 0.00480002 to 0.00480002
Heightened Def Con from 0.00480002 to 0.00480002
Heightened Def Con from 0.00480002 to 0.00480002
Heightened Def Con from 0.00480003 to 0.00480003
Heightened Def Con from 0.00480003 to 0.00480003
Heightened Def Con from 0.00480003 to 0.00480003
Heightened Def Con from 0.00480003 to 0.00480003
Heightened Def Con from 0.00480003 to 0.00480003
Heightened Def Con from 0.00480003 to 0.00480003
Heightened Def Con from 0.00480003 to 0.00480003
Heightened Def Con from 0.00480003 to 0.00480003
Heightened Def Con from 0.00480003 to 0.00480003
Heightened Def Con from 0.00480003 to 0.00480004
Heightened Def Con from 0.00480004 to 0.00480004
Heightened Def Con from 0.00480005 to 0.00480005
Heightened Def Con from 0.00480005 to 0.00480005
Heightened Def Con from 0.00480005 to 0.00480006
Heightened Def Con from 0.00480008 to 0.00480008
Heightened Def Con from 0.00480014 to 0.00480014
Heightened Def Con from 0.00480022 to 0.00480022
Heightened Def Con from 0.00480023 to 0.00480023
Heightened Def Con from 0.00480023 to 0.00480023
Heightened Def Con from 0.00480023 to 0.00480023
Heightened Def Con from 0.00480023 to 0.00480023
Heightened Def Con from 0.00480024 to 0.00480024
Heightened Def Con from 0.00480024 to 0.00480024
Heightened Def Con from 0.00480024 to 0.00480024
Heightened Def Con from 0.00480024 to 0.00480024
Heightened Def Con from 0.00480024 to 0.00480024
Heightened Def Con from 0.00480024 to 0.00480025
Heightened Def Con from 0.00480025 to 0.00480025
Heightened Def Con from 0.00480026 to 0.00480027
Heightened Def Con from 0.00480027 to 0.00480027
Heightened Def Con from 0.00480027 to 0.00480027
Heightened Def Con from 0.00480027 to 0.00480027
Heightened Def Con from 0.00480028 to 0.00480028
Heightened Def Con from 0.00480029 to 0.00480029
Heightened Def Con from 0.00480029 to 0.00480029
Heightened Def Con from 0.00480029 to 0.0048003
Heightened Def Con from 0.0048003 to 0.0048003
Heightened Def Con from 0.0048003 to 0.0048003
Heightened Def Con from 0.0048003 to 0.0048003
Heightened Def Con from 0.0048003 to 0.0048003
Heightened Def Con from 0.00480031 to 0.00480031
Heightened Def Con from 0.00480031 to 0.00480031
Heightened Def Con from 0.005 to 0.005
Heightened Def Con from 0.005 +to 0.005
Heightened Def Con from 0.005 to 0.005
Heightened Def Con from 0.005 to 0.005
Heightened Def Con from 0.005 to 0.00500001
Heightened Def Con from 0.00500003 to 0.00500003
Heightened Def Con from 0.00500003 +to 0.00500004
Heightened Def Con from 0.00500004 to 0.00500004
Heightened Def Con from 0.00500004 to 0.00500004
Heightened Def Con from 0.00500004 to 0.00500004
Heightened Def Con from 0.00500006 to 0.00500006
Heightened Def Con from 0.00500006 to 0.00500006
Heightened Def Con from 0.00500006 to 0.00500006
Heightened Def Con from 0.00500006 to 0.00500006
Heightened Def Con from 0.00500006 to 0.00500007
Heightened Def Con from 0.00500007 to 0.00500007
Heightened Def Con from 0.00500007 to 0.00500007
Heightened Def Con from 0.00500007 to 0.00500007
Heightened Def Con from 0.00500007 to 0.00500007
Heightened Def Con from 0.00500007 to 0.00500007
Heightened Def Con from 0.00500007 to 0.00500007
Heightened Def Con from 0.00500007 to 0.00500007
Heightened Def Con from 0.00500007 to 0.00500007
Heightened Def Con from 0.00500007 to 0.00500007
Heightened Def Con from 0.00500008 to 0.00500008
Heightened Def Con from 0.00500008 to 0.00500008
Heightened Def Con from 0.00500008 to 0.00500008
Heightened Def Con from 0.00500008 to 0.00500008
Heightened Def Con from 0.00500008 to 0.00500009
Heightened Def Con from 0.00500012 to 0.00500012
Heightened Def Con from 0.00500012 to 0.00500012
Heightened Def Con from 0.00500012 to 0.00500012
Heightened Def Con from 0.00500012 to 0.00500012
Heightened Def Con from 0.00500012 to 0.00500012
Heightened Def Con from 0.00500012 to 0.00500012
Heightened Def Con from 0.00500012 to 0.00500013
Heightened Def Con from 0.00500014 to 0.00500014
Heightened Def Con from 0.00500014 to 0.00500015
Heightened Def Con from 0.00500015 to 0.00500015
Heightened Def Con from 0.00500015 to 0.00500015
Heightened Def Con from 0.00500015 to 0.00500015
Heightened Def Con from 0.00500015 to 0.00500015
Heightened Def Con from 0.00500015 to 0.00500015
Heightened Def Con from 0.00500015 to 0.00500015
Heightened Def Con from 0.00500015 to 0.00500016
Heightened Def Con from 0.00500016 to 0.00500016
Heightened Def Con from 0.00500017 to 0.00500017
Heightened Def Con from 0.00500017 to 0.00500017
Heightened Def Con from 0.00500019 to 0.00500019
Heightened Def Con from 0.0050002 to 0.0050002
Heightened Def Con from 0.0050002 to 0.0050002
Heightened Def Con from 0.0050002 to 0.00500021
Heightened Def Con from 0.00500021 to 0.00500021
Heightened Def Con from 0.00500021 to 0.00500021
Heightened Def Con from 0.00500021 to 0.00500021
Heightened Def Con from 0.00500021 to 0.00500021
Heightened Def Con from 0.00500023 to 0.00500023
Heightened Def Con from 0.00500023 to 0.00500023
Heightened Def Con from 0.00500023 to 0.00500023
Heightened Def Con from 0.00500024 to 0.00500024
Heightened Def Con from 0.00500024 to 0.00500024
Heightened Def Con from 0.00500024 to 0.00500024
Heightened Def Con from 0.00500025 to 0.00500025
Heightened Def Con from 0.0052 +to 0.0052
Heightened Def Con from 0.0052 to 0.0052
Heightened Def Con from 0.0052 to 0.0052
Heightened Def Con from 0.0052 to 0.0052
Heightened Def Con from 0.0052 to 0.0052
Heightened Def Con from 0.0052 to 0.0052
Heightened Def Con from 0.0052 to 0.0052
Heightened Def Con from 0.00520001 to 0.00520001
Heightened Def Con from 0.00520001 to 0.00520001
Heightened Def Con from 0.00520001 to 0.00520001
Heightened Def Con from 0.00520001 to 0.00520001
Heightened Def Con from 0.00520001 to 0.00520001
Heightened Def Con from 0.00520001 to 0.00520001
Heightened Def Con from 0.00520001 to 0.00520001
Heightened Def Con from 0.00520001 to 0.00520001
Heightened Def Con from 0.00520001 +to 0.00520001
Heightened Def Con from 0.00520001 to 0.00520001
Heightened Def Con from 0.00520002 to 0.00520002
Heightened Def Con from 0.00520002 to 0.00520002
Heightened Def Con from 0.00520002 to 0.00520002
Heightened Def Con from 0.00520002 to 0.00520002
Heightened Def Con from 0.00520002 to 0.00520002
Heightened Def Con from 0.00520002 to 0.00520002
Heightened Def Con from 0.00520002 to 0.00520002
Heightened Def Con from 0.00520002 to 0.00520002
Heightened Def Con from 0.00520002 to 0.00520002
Heightened Def Con from 0.00520002 to 0.00520002
Heightened Def Con from 0.00520003 to 0.00520003
Heightened Def Con from 0.00520003 to 0.00520003
Heightened Def Con from 0.00520004 to 0.00520004
Heightened Def Con from 0.00520004 to 0.00520005
Heightened Def Con from 0.00520007 to 0.00520007
Heightened Def Con from 0.00520008 to 0.00520008
Heightened Def Con from 0.00520008 to 0.00520008
Heightened Def Con from 0.00520008 to 0.00520008
Heightened Def Con from 0.00520008 to 0.00520008
Heightened Def Con from 0.00520008 to 0.00520008
Heightened Def Con from 0.00520008 to 0.00520008
Heightened Def Con from 0.00520008 to 0.00520008
Heightened Def Con from 0.00520009 to 0.00520009
Heightened Def Con from 0.00520009 to 0.00520009
Heightened Def Con from 0.00520009 to 0.00520009
Heightened Def Con from 0.00520009 to 0.00520009
Heightened Def Con from 0.00520009 to 0.00520009
Heightened Def Con from 0.00520009 to 0.00520009
Heightened Def Con from 0.00520009 to 0.00520009
Heightened Def Con from 0.00520009 to 0.00520009
Heightened Def Con from 0.00520009 to 0.0052001
Heightened Def Con from 0.0052001 to 0.0052001
Heightened Def Con from 0.0052001 to 0.0052001
Heightened Def Con from 0.0052001 to 0.0052001
Heightened Def Con from 0.0052001 to 0.0052001
Heightened Def Con from 0.0052001 to 0.0052001
Heightened Def Con from 0.0052001 to 0.0052001
Heightened Def Con from 0.0052001 to 0.0052001
Heightened Def Con from 0.00520012 to 0.00520012
Heightened Def Con from 0.00520016 to 0.00520016
Heightened Def Con from 0.00520016 to 0.00520016
Heightened Def Con from 0.00520017 to 0.00520017
Heightened Def Con from 0.00520017 to 0.00520017
Heightened Def Con from 0.00520017 to 0.00520017
Heightened Def Con from 0.00520017 to 0.00520017
Heightened Def Con from 0.00520017 to 0.00520018
Heightened Def Con from 0.00520018 to 0.00520018
Heightened Def Con from 0.00520018 to 0.00520019
Heightened Def Con from 0.00520047 to 0.00520047
Heightened Def Con from 0.0054 +to 0.0054
Heightened Def Con from 0.0054 +to 0.0054
Heightened Def Con from 0.0054 to 0.0054
Heightened Def Con from 0.0054 to 0.0054
Heightened Def Con from 0.0054 to 0.0054
Heightened Def Con from 0.0054 to 0.0054
Heightened Def Con from 0.0054 to 0.00540001
Heightened Def Con from 0.00540002 to 0.00540002
Heightened Def Con from 0.00540002 to 0.00540002
Heightened Def Con from 0.00540002 to 0.00540002
Heightened Def Con from 0.00540002 to 0.00540002
Heightened Def Con from 0.00540002 to 0.00540002
Heightened Def Con from 0.00540002 to 0.00540002
Heightened Def Con from 0.00540002 to 0.00540003
Heightened Def Con from 0.00540003 to 0.00540003
Heightened Def Con from 0.00540003 to 0.00540003
Heightened Def Con from 0.00540014 to 0.00540014
Heightened Def Con from 0.00540014 to 0.00540014
Heightened Def Con from 0.00540016 to 0.00540016
Heightened Def Con from 0.00540016 to 0.00540016
Heightened Def Con from 0.00540016 to 0.00540016
Heightened Def Con from 0.00540016 to 0.00540016
Heightened Def Con from 0.00540016 to 0.00540016
Heightened Def Con from 0.00540016 to 0.00540016
Heightened Def Con from 0.00540016 to 0.00540016
Heightened Def Con from 0.00540016 to 0.00540016
Heightened Def Con from 0.00540016 to 0.00540016
Heightened Def Con from 0.00540017 to 0.00540017
Heightened Def Con from 0.00540017 to 0.00540017
Heightened Def Con from 0.00540017 to 0.00540017
Heightened Def Con from 0.00540017 to 0.00540017
Heightened Def Con from 0.00540018 to 0.00540018
Heightened Def Con from 0.00540018 to 0.00540018
Heightened Def Con from 0.0056 +to 0.0056
Heightened Def Con from 0.0056 to 0.0056
Heightened Def Con from 0.0056 +to 0.0056
Heightened Def Con from 0.0056 to 0.0056
Heightened Def Con from 0.0056 to 0.0056
Heightened Def Con from 0.0056 to 0.0056
Heightened Def Con from 0.0056 to 0.0056
Heightened Def Con from 0.0056 to 0.0056
Heightened Def Con from 0.0056 to 0.00560001
Heightened Def Con from 0.00560001 to 0.00560001
Heightened Def Con from 0.00560001 to 0.00560001
Heightened Def Con from 0.00560001 to 0.00560001
Heightened Def Con from 0.00560001 +to 0.00560001
Heightened Def Con from 0.00560001 to 0.00560001
Heightened Def Con from 0.0058 +to 0.0058
Heightened Def Con from 0.0058 to 0.0058
Heightened Def Con from 0.0058 to 0.0058
Heightened Def Con from 0.0058 to 0.0058
Heightened Def Con from 0.0058 to 0.0058
Heightened Def Con from 0.0058 to 0.00580001
Heightened Def Con from 0.00580002 to 0.00580002
Heightened Def Con from 0.00580002 to 0.00580002
Heightened Def Con from 0.00580002 to 0.00580002
Heightened Def Con from 0.00580002 to 0.00580002
Heightened Def Con from 0.00580002 to 0.00580003
Heightened Def Con from 0.00580003 to 0.00580003
Heightened Def Con from 0.00580003 to 0.00580003
Heightened Def Con from 0.00580003 to 0.00580003
Heightened Def Con from 0.00580003 to 0.00580003
Heightened Def Con from 0.00580003 to 0.00580003
Heightened Def Con from 0.00580004 to 0.00580004
Heightened Def Con from 0.00580004 to 0.00580004
Heightened Def Con from 0.00580005 to 0.00580005
Heightened Def Con from 0.00580005 to 0.00580005
Heightened Def Con from 0.00580005 +to 0.00580005
Heightened Def Con from 0.00580005 to 0.00580005
Heightened Def Con from 0.00580005 to 0.00580006
Heightened Def Con from 0.00580006 +to 0.00580006
Heightened Def Con from 0.00580006 to 0.00580006
Heightened Def Con from 0.00580006 to 0.00580006
Heightened Def Con from 0.00580006 to 0.00580006
Heightened Def Con from 0.00580006 to 0.00580006
Heightened Def Con from 0.00580006 to 0.00580006
Heightened Def Con from 0.00580006 to 0.00580007
Heightened Def Con from 0.00580007 to 0.00580007
Heightened Def Con from 0.00580007 to 0.00580007
Heightened Def Con from 0.00580007 to 0.00580007
Heightened Def Con from 0.00580008 to 0.00580008
Heightened Def Con from 0.00580008 to 0.00580008
Heightened Def Con from 0.00580008 to 0.00580008
Heightened Def Con from 0.00580008 to 0.00580009
Heightened Def Con from 0.00580009 to 0.00580009
Heightened Def Con from 0.00580009 +to 0.00580009
Heightened Def Con from 0.00580009 to 0.00580009
Heightened Def Con from 0.00580009 to 0.00580009
Heightened Def Con from 0.00580009 to 0.00580009
Heightened Def Con from 0.00580009 to 0.00580009
Heightened Def Con from 0.0058001 to 0.0058001
Heightened Def Con from 0.0058001 to 0.0058001
Heightened Def Con from 0.00580011 to 0.00580011
Heightened Def Con from 0.00580011 to 0.00580012
Heightened Def Con from 0.00580012 to 0.00580012
Heightened Def Con from 0.00580013 +to 0.00580014
Heightened Def Con from 0.00580014 to 0.00580014
Heightened Def Con from 0.00580014 +to 0.00580014
Heightened Def Con from 0.00580014 to 0.00580014
Heightened Def Con from 0.00580014 to 0.00580014
Heightened Def Con from 0.00580014 to 0.00580015
Heightened Def Con from 0.00580018 to 0.00580018
Heightened Def Con from 0.00580025 to 0.00580025
Heightened Def Con from 0.00580025 to 0.00580026
Heightened Def Con from 0.00580026 to 0.00580026
Heightened Def Con from 0.00580026 to 0.00580026
Heightened Def Con from 0.00580026 to 0.00580026
Heightened Def Con from 0.00580026 to 0.00580026
Heightened Def Con from 0.00580027 to 0.00580027
Heightened Def Con from 0.00580027 to 0.00580027
Heightened Def Con from 0.00580027 to 0.00580027
Heightened Def Con from 0.00580027 to 0.00580027
Heightened Def Con from 0.00580027 to 0.00580028
Heightened Def Con from 0.0058003 to 0.0058003
Heightened Def Con from 0.0058003 to 0.0058003
Heightened Def Con from 0.0058003 to 0.00580031
Heightened Def Con from 0.00580031 to 0.00580031
Heightened Def Con from 0.00580032 to 0.00580032
Heightened Def Con from 0.00580032 to 0.00580032
Heightened Def Con from 0.00580032 to 0.00580032
Heightened Def Con from 0.00580032 to 0.00580032
Heightened Def Con from 0.00580032 to 0.00580033
Heightened Def Con from 0.00580033 to 0.00580033
Heightened Def Con from 0.00580033 to 0.00580033
Heightened Def Con from 0.00580033 to 0.00580033
Heightened Def Con from 0.00580033 to 0.00580033
Heightened Def Con from 0.00580033 +to 0.00580033
Heightened Def Con from 0.00580033 to 0.00580033
Heightened Def Con from 0.00580033 to 0.00580033
Heightened Def Con from 0.00580034 to 0.00580034
Heightened Def Con from 0.00580034 to 0.00580034
Heightened Def Con from 0.00580034 to 0.00580034
Heightened Def Con from 0.00580034 to 0.00580034
Heightened Def Con from 0.00580034 to 0.00580034
Heightened Def Con from 0.00580034 to 0.00580034
Heightened Def Con from 0.00580034 to 0.00580034
Heightened Def Con from 0.00580034 to 0.00580034
Heightened Def Con from 0.00580034 to 0.00580035
Heightened Def Con from 0.00580035 to 0.00580035
Heightened Def Con from 0.00580035 to 0.00580035
Heightened Def Con from 0.00580036 to 0.00580036
Heightened Def Con from 0.00580036 to 0.00580036
Heightened Def Con from 0.00580036 to 0.00580036
Heightened Def Con from 0.00580036 to 0.00580036
Heightened Def Con from 0.00580036 to 0.00580036
Heightened Def Con from 0.00580036 to 0.00580036
Heightened Def Con from 0.00580037 to 0.00580037
Heightened Def Con from 0.00580037 to 0.00580037
Heightened Def Con from 0.00580038 to 0.00580038
Heightened Def Con from 0.00580038 to 0.00580038
Heightened Def Con from 0.00580038 to 0.00580038
Heightened Def Con from 0.00580038 to 0.00580038
Heightened Def Con from 0.00580038 to 0.00580038
Heightened Def Con from 0.00580038 to 0.00580038
Heightened Def Con from 0.00580038 to 0.00580038
Heightened Def Con from 0.00580039 to 0.00580039
Heightened Def Con from 0.00580039 to 0.00580039
Heightened Def Con from 0.0058004 to 0.0058004
Heightened Def Con from 0.0058004 to 0.0058004
Heightened Def Con from 0.0058004 to 0.00580041
Heightened Def Con from 0.00580041 to 0.00580041
Heightened Def Con from 0.00580041 to 0.00580041
Heightened Def Con from 0.00580041 to 0.00580041
Heightened Def Con from 0.00580041 to 0.00580041
Heightened Def Con from 0.00580041 to 0.00580041
Heightened Def Con from 0.00580041 to 0.00580042
Heightened Def Con from 0.00580042 to 0.00580042
Heightened Def Con from 0.00580043 to 0.00580043
Heightened Def Con from 0.00580043 to 0.00580043
Heightened Def Con from 0.00580043 to 0.00580043
Heightened Def Con from 0.00580043 to 0.00580043
Heightened Def Con from 0.00580043 to 0.00580043
Heightened Def Con from 0.00580043 to 0.00580044
Heightened Def Con from 0.00580044 to 0.00580044
Heightened Def Con from 0.00580048 to 0.00580048
Heightened Def Con from 0.00580052 to 0.00580052
Heightened Def Con from 0.00580052 to 0.00580052
Heightened Def Con from 0.00580052 to 0.00580052
Heightened Def Con from 0.00580052 to 0.00580052
Heightened Def Con from 0.006 +to 0.006
Heightened Def Con from 0.006 +to 0.006
Heightened Def Con from 0.006 to 0.006
Heightened Def Con from 0.006 to 0.006
Heightened Def Con from 0.006 to 0.006
Heightened Def Con from 0.006 to 0.00600001
Heightened Def Con from 0.00600001 to 0.00600001
Heightened Def Con from 0.00600001 +to 0.00600001
Heightened Def Con from 0.00600001 to 0.00600001
Heightened Def Con from 0.00600003 to 0.00600003
Heightened Def Con from 0.00600003 to 0.00600003
Heightened Def Con from 0.00600003 to 0.00600003
Heightened Def Con from 0.00600003 to 0.00600003
Heightened Def Con from 0.00600003 to 0.00600003
Heightened Def Con from 0.00600003 to 0.00600003
Heightened Def Con from 0.00600011 to 0.00600012
Heightened Def Con from 0.00600012 to 0.00600012
Heightened Def Con from 0.00600012 to 0.00600012
Heightened Def Con from 0.00600012 to 0.00600012
Heightened Def Con from 0.00600012 to 0.00600012
Heightened Def Con from 0.00600012 to 0.00600012
Heightened Def Con from 0.00600012 to 0.00600012
Heightened Def Con from 0.00600012 to 0.00600013
Heightened Def Con from 0.00600014 to 0.00600014
Heightened Def Con from 0.00600014 to 0.00600014
Heightened Def Con from 0.00600014 +to 0.00600014
Heightened Def Con from 0.00600014 to 0.00600014
Heightened Def Con from 0.00600014 to 0.00600014
Heightened Def Con from 0.00600014 to 0.00600014
Heightened Def Con from 0.00600014 to 0.00600015
Heightened Def Con from 0.00600015 to 0.00600015
Heightened Def Con from 0.00600015 to 0.00600015
Heightened Def Con from 0.00600015 to 0.00600015
Heightened Def Con from 0.00600015 to 0.00600016
Heightened Def Con from 0.00600016 to 0.00600016
Heightened Def Con from 0.00600016 to 0.00600016
Heightened Def Con from 0.00600019 to 0.00600019
Heightened Def Con from 0.00600019 to 0.00600019
Heightened Def Con from 0.00600019 to 0.00600019
Heightened Def Con from 0.00600019 to 0.0060002
Heightened Def Con from 0.0060002 to 0.0060002
Heightened Def Con from 0.0060002 to 0.0060002
Heightened Def Con from 0.0060002 to 0.0060002
Heightened Def Con from 0.0060002 to 0.0060002
Heightened Def Con from 0.0060002 to 0.0060002
Heightened Def Con from 0.0060002 to 0.0060002
Heightened Def Con from 0.0060002 to 0.0060002
Heightened Def Con from 0.0060002 to 0.0060002
Heightened Def Con from 0.0060002 to 0.0060002
Heightened Def Con from 0.0060002 to 0.0060002
Heightened Def Con from 0.0060002 to 0.00600021
Heightened Def Con from 0.00600021 to 0.00600021
Heightened Def Con from 0.00600023 to 0.00600023
Heightened Def Con from 0.00600023 to 0.00600023
Heightened Def Con from 0.00600023 to 0.00600023
Heightened Def Con from 0.00600023 to 0.00600023
Heightened Def Con from 0.00600023 to 0.00600024
Heightened Def Con from 0.00600024 to 0.00600024
Heightened Def Con from 0.00600024 to 0.00600024
Heightened Def Con from 0.00600024 to 0.00600024
Heightened Def Con from 0.00600024 to 0.00600025
Heightened Def Con from 0.00600025 to 0.00600025
Heightened Def Con from 0.00600025 to 0.00600025
Heightened Def Con from 0.00600026 to 0.00600026
Heightened Def Con from 0.00600026 to 0.00600026
Heightened Def Con from 0.00600026 to 0.00600026
Heightened Def Con from 0.00600026 to 0.00600026
Heightened Def Con from 0.00600026 to 0.00600026
Heightened Def Con from 0.00600026 to 0.00600026
Heightened Def Con from 0.00600026 to 0.00600026
Heightened Def Con from 0.00600026 to 0.00600026
Heightened Def Con from 0.00600026 to 0.00600027
Heightened Def Con from 0.00600027 to 0.00600027
Heightened Def Con from 0.00600027 to 0.00600027
Heightened Def Con from 0.00600027 to 0.00600027
Heightened Def Con from 0.00600027 +to 0.00600027
Heightened Def Con from 0.00600027 to 0.00600027
Heightened Def Con from 0.00600028 to 0.00600028
Heightened Def Con from 0.00600028 to 0.00600028
Heightened Def Con from 0.00600028 to 0.00600028
Heightened Def Con from 0.00600028 to 0.00600028
Heightened Def Con from 0.00600054 to 0.00600054
Heightened Def Con from 0.00600054 to 0.00600054
Heightened Def Con from 0.00600054 to 0.00600055
Heightened Def Con from 0.00600055 to 0.00600055
Heightened Def Con from 0.00600055 to 0.00600055
Heightened Def Con from 0.00600055 to 0.00600055
Heightened Def Con from 0.00600055 to 0.00600056
Heightened Def Con from 0.00600056 to 0.00600056
Heightened Def Con from 0.0062 to 0.0062
Heightened Def Con from 0.0062 to 0.0062
Heightened Def Con from 0.0062 to 0.0062
Heightened Def Con from 0.0062 to 0.0062
Heightened Def Con from 0.0062 to 0.0062
Heightened Def Con from 0.0062 +to 0.0062
Heightened Def Con from 0.00620001 to 0.00620001
Heightened Def Con from 0.00620001 to 0.00620001
Heightened Def Con from 0.00620001 to 0.00620001
Heightened Def Con from 0.00620001 to 0.00620001
Heightened Def Con from 0.00620001 +to 0.00620001
Heightened Def Con from 0.00620001 to 0.00620001
Heightened Def Con from 0.00620001 to 0.00620002
Heightened Def Con from 0.00620002 to 0.00620002
Heightened Def Con from 0.00620002 to 0.00620002
Heightened Def Con from 0.00620002 to 0.00620002
Heightened Def Con from 0.00620002 to 0.00620002
Heightened Def Con from 0.00620011 to 0.00620011
Heightened Def Con from 0.00620011 to 0.00620011
Heightened Def Con from 0.00620011 to 0.00620012
Heightened Def Con from 0.00620012 to 0.00620012
Heightened Def Con from 0.00620012 to 0.00620012
Heightened Def Con from 0.00620012 to 0.00620012
Heightened Def Con from 0.00620012 to 0.00620012
Heightened Def Con from 0.00620012 to 0.00620013
Heightened Def Con from 0.00620013 to 0.00620013
Heightened Def Con from 0.00620013 +to 0.00620013
Heightened Def Con from 0.00620013 to 0.00620014
Heightened Def Con from 0.00620014 to 0.00620014
Heightened Def Con from 0.00620014 to 0.00620014
Heightened Def Con from 0.00620014 to 0.00620014
Heightened Def Con from 0.00620014 +to 0.00620014
Heightened Def Con from 0.00620014 to 0.00620014
Heightened Def Con from 0.00620014 +to 0.00620014
Heightened Def Con from 0.00620015 to 0.00620015
Heightened Def Con from 0.00620015 to 0.00620015
Heightened Def Con from 0.00620015 to 0.00620015
Heightened Def Con from 0.00620015 to 0.00620015
Heightened Def Con from 0.00620015 to 0.00620016
Heightened Def Con from 0.00620016 to 0.00620016
Heightened Def Con from 0.00620016 to 0.00620016
Heightened Def Con from 0.00620016 to 0.00620016
Heightened Def Con from 0.00620016 to 0.00620017
Heightened Def Con from 0.00620017 to 0.00620017
Heightened Def Con from 0.00620017 +to 0.00620017
Heightened Def Con from 0.00620017 +to 0.00620017
Heightened Def Con from 0.00620017 to 0.00620017
Heightened Def Con from 0.00620018 to 0.00620018
Heightened Def Con from 0.00620018 to 0.00620018
Heightened Def Con from 0.00620019 to 0.00620019
Heightened Def Con from 0.00620019 to 0.00620019
Heightened Def Con from 0.0062002 to 0.0062002
Heightened Def Con from 0.0062002 to 0.0062002
Heightened Def Con from 0.0062002 to 0.0062002
Heightened Def Con from 0.0062002 to 0.0062002
Heightened Def Con from 0.0062002 to 0.0062002
Heightened Def Con from 0.00620021 to 0.00620021
Heightened Def Con from 0.00620021 to 0.00620021
Heightened Def Con from 0.00620021 to 0.00620021
Heightened Def Con from 0.00620021 to 0.00620022
Heightened Def Con from 0.00620022 +to 0.00620022
Heightened Def Con from 0.00620022 to 0.00620022
Heightened Def Con from 0.00620022 to 0.00620022
Heightened Def Con from 0.00620022 +to 0.00620022
Heightened Def Con from 0.00620022 to 0.00620022
Heightened Def Con from 0.00620022 to 0.00620022
Heightened Def Con from 0.00620022 to 0.00620022
Heightened Def Con from 0.00620022 to 0.00620023
Heightened Def Con from 0.00620023 to 0.00620023
Heightened Def Con from 0.00620023 to 0.00620023
Heightened Def Con from 0.00620023 to 0.00620023
Heightened Def Con from 0.00620023 to 0.00620023
Heightened Def Con from 0.00620024 to 0.00620024
Heightened Def Con from 0.00620024 to 0.00620024
Heightened Def Con from 0.00620025 to 0.00620025
Heightened Def Con from 0.00620025 to 0.00620025
Heightened Def Con from 0.00620025 to 0.00620025
Heightened Def Con from 0.00620025 to 0.00620025
Heightened Def Con from 0.00620025 +to 0.00620025
Heightened Def Con from 0.00620026 to 0.00620026
Heightened Def Con from 0.00620026 to 0.00620026
Heightened Def Con from 0.00620026 to 0.00620026
Heightened Def Con from 0.00620026 to 0.00620026
Heightened Def Con from 0.00620026 to 0.00620026
Heightened Def Con from 0.00620027 to 0.00620027
Heightened Def Con from 0.00620027 to 0.00620027
Heightened Def Con from 0.00620027 to 0.00620027
Heightened Def Con from 0.00620027 to 0.00620027
Heightened Def Con from 0.00620027 to 0.00620027
Heightened Def Con from 0.0064 +++to 0.0064
Heightened Def Con from 0.0064 to 0.0064
Heightened Def Con from 0.0064 to 0.0064
Heightened Def Con from 0.0064 to 0.0064
Heightened Def Con from 0.0064 to 0.0064
Heightened Def Con from 0.00640001 to 0.00640001
Heightened Def Con from 0.00640001 to 0.00640001
Heightened Def Con from 0.00640001 to 0.00640001
Heightened Def Con from 0.00640002 to 0.00640002
Heightened Def Con from 0.00640002 to 0.00640002
Heightened Def Con from 0.00640002 to 0.00640002
Heightened Def Con from 0.00640002 to 0.00640002
Heightened Def Con from 0.00640004 to 0.00640004
Heightened Def Con from 0.00640004 to 0.00640004
Heightened Def Con from 0.00640004 to 0.00640004
Heightened Def Con from 0.00640004 +to 0.00640004
Heightened Def Con from 0.00640004 to 0.00640004
Heightened Def Con from 0.00640004 to 0.00640004
Heightened Def Con from 0.00640004 to 0.00640004
Heightened Def Con from 0.00640004 to 0.00640005
Heightened Def Con from 0.00640005 to 0.00640005
Heightened Def Con from 0.00640005 to 0.00640005
Heightened Def Con from 0.00640005 +to 0.00640005
Heightened Def Con from 0.00640005 to 0.00640005
Heightened Def Con from 0.00640005 to 0.00640005
Heightened Def Con from 0.00640005 +to 0.00640005
Heightened Def Con from 0.00640005 to 0.00640005
Heightened Def Con from 0.00640005 to 0.00640005
Heightened Def Con from 0.00640005 to 0.00640005
Heightened Def Con from 0.00640005 to 0.00640005
Heightened Def Con from 0.00640016 to 0.00640016
Heightened Def Con from 0.00640016 to 0.00640017
Heightened Def Con from 0.00640017 to 0.00640017
Heightened Def Con from 0.00640017 to 0.00640017
Heightened Def Con from 0.00640017 to 0.00640017
Heightened Def Con from 0.00640017 to 0.00640017
Heightened Def Con from 0.00640019 to 0.00640019
Heightened Def Con from 0.00640019 to 0.00640019
Heightened Def Con from 0.00640019 to 0.00640019
Heightened Def Con from 0.00640019 to 0.00640019
Heightened Def Con from 0.00640019 to 0.00640019
Heightened Def Con from 0.00640019 to 0.00640019
Heightened Def Con from 0.00640019 to 0.00640019
Heightened Def Con from 0.00640019 to 0.00640019
Heightened Def Con from 0.00640019 to 0.00640019
Heightened Def Con from 0.0064002 to 0.0064002
Heightened Def Con from 0.0064002 to 0.0064002
Heightened Def Con from 0.0064002 to 0.0064002
Heightened Def Con from 0.0064002 to 0.0064002
Heightened Def Con from 0.0064002 +to 0.0064002
Heightened Def Con from 0.0064002 to 0.0064002
Heightened Def Con from 0.0064002 to 0.0064002
Heightened Def Con from 0.0064002 to 0.0064002
Heightened Def Con from 0.0064002 to 0.0064002
Heightened Def Con from 0.00640021 to 0.00640021
Heightened Def Con from 0.00640021 to 0.00640021
Heightened Def Con from 0.00640021 to 0.00640021
Heightened Def Con from 0.00640021 to 0.00640021
Heightened Def Con from 0.00640021 to 0.00640021
Heightened Def Con from 0.00640021 to 0.00640021
Heightened Def Con from 0.00640021 to 0.00640022
Heightened Def Con from 0.00640022 to 0.00640022
Heightened Def Con from 0.00640022 to 0.00640022
Heightened Def Con from 0.00640022 to 0.00640022
Heightened Def Con from 0.00640022 to 0.00640022
Heightened Def Con from 0.00640022 to 0.00640022
Heightened Def Con from 0.00640022 to 0.00640022
Heightened Def Con from 0.00640022 to 0.00640023
Heightened Def Con from 0.00640023 to 0.00640023
Heightened Def Con from 0.00640023 to 0.00640023
Heightened Def Con from 0.00640023 to 0.00640023
Heightened Def Con from 0.00640023 to 0.00640024
Heightened Def Con from 0.00640024 to 0.00640024
Heightened Def Con from 0.00640024 to 0.00640024
Heightened Def Con from 0.00640024 to 0.00640024
Heightened Def Con from 0.00640024 to 0.00640024
Heightened Def Con from 0.00640024 to 0.00640024
Heightened Def Con from 0.00640024 to 0.00640024
Heightened Def Con from 0.00640024 to 0.00640024
Heightened Def Con from 0.00640024 to 0.00640024
Heightened Def Con from 0.00640024 to 0.00640024
Heightened Def Con from 0.00640024 to 0.00640024
Heightened Def Con from 0.00640024 to 0.00640024
Heightened Def Con from 0.00640025 to 0.00640025
Heightened Def Con from 0.00640025 to 0.00640025
Heightened Def Con from 0.0066 ++++++++to 0.0066
Heightened Def Con from 0.0066 +to 0.0066
Heightened Def Con from 0.0066 to 0.0066
Heightened Def Con from 0.0066 to 0.0066
Heightened Def Con from 0.0066 to 0.0066
Heightened Def Con from 0.0066 to 0.0066
Heightened Def Con from 0.0066 to 0.0066
Heightened Def Con from 0.0066 to 0.0066
Heightened Def Con from 0.0066 to 0.0066
Heightened Def Con from 0.0066 to 0.00660001
Heightened Def Con from 0.00660001 to 0.00660002
Heightened Def Con from 0.00660002 to 0.00660002
Heightened Def Con from 0.00660002 +to 0.00660002
Heightened Def Con from 0.00660002 to 0.00660002
Heightened Def Con from 0.00660002 +to 0.00660002
Heightened Def Con from 0.00660002 to 0.00660003
Heightened Def Con from 0.00660003 to 0.00660003
Heightened Def Con from 0.00660003 to 0.00660003
Heightened Def Con from 0.00660003 to 0.00660003
Heightened Def Con from 0.00660003 to 0.00660003
Heightened Def Con from 0.00660003 to 0.00660003
Heightened Def Con from 0.00660003 to 0.00660003
Heightened Def Con from 0.00660003 +to 0.00660004
Heightened Def Con from 0.00660004 +to 0.00660004
Heightened Def Con from 0.00660005 to 0.00660005
Heightened Def Con from 0.00660005 to 0.00660005
Heightened Def Con from 0.00660005 to 0.00660005
Heightened Def Con from 0.00660005 +to 0.00660005
Heightened Def Con from 0.00660006 to 0.00660006
Heightened Def Con from 0.00660006 to 0.00660006
Heightened Def Con from 0.00660006 to 0.00660006
Heightened Def Con from 0.00660006 to 0.00660006
Heightened Def Con from 0.00660006 to 0.00660006
Heightened Def Con from 0.00660006 to 0.00660006
Heightened Def Con from 0.00660006 to 0.00660007
Heightened Def Con from 0.00660007 to 0.00660007
Heightened Def Con from 0.00660007 to 0.00660007
Heightened Def Con from 0.00660007 +to 0.00660007
Heightened Def Con from 0.00660007 to 0.00660007
Heightened Def Con from 0.00660007 to 0.00660007
Heightened Def Con from 0.00660007 to 0.00660007
Heightened Def Con from 0.00660007 to 0.00660007
Heightened Def Con from 0.00660007 to 0.00660008
Heightened Def Con from 0.00660009 to 0.00660009
Heightened Def Con from 0.00660009 to 0.00660009
Heightened Def Con from 0.00660009 to 0.00660009
Heightened Def Con from 0.00660009 to 0.00660009
Heightened Def Con from 0.00660009 to 0.00660009
Heightened Def Con from 0.00660009 to 0.00660009
Heightened Def Con from 0.00660009 to 0.00660009
Heightened Def Con from 0.00660009 to 0.00660009
Heightened Def Con from 0.00660009 to 0.00660009
Heightened Def Con from 0.00660009 to 0.00660009
Heightened Def Con from 0.00660009 to 0.0066001
Heightened Def Con from 0.0066001 to 0.0066001
Heightened Def Con from 0.0066001 +to 0.0066001
Heightened Def Con from 0.0066001 to 0.0066001
Heightened Def Con from 0.0066001 to 0.0066001
Heightened Def Con from 0.0066001 to 0.0066001
Heightened Def Con from 0.0066001 to 0.0066001
Heightened Def Con from 0.0066001 to 0.0066001
Heightened Def Con from 0.0066001 to 0.0066001
Heightened Def Con from 0.0066001 to 0.0066001
Heightened Def Con from 0.0066001 to 0.0066001
Heightened Def Con from 0.0066001 to 0.0066001
Heightened Def Con from 0.0068 ++to 0.0068
Heightened Def Con from 0.0068 to 0.0068
Heightened Def Con from 0.0068 to 0.0068
Heightened Def Con from 0.0068 to 0.0068
Heightened Def Con from 0.0068 to 0.0068
Heightened Def Con from 0.0068 to 0.0068
Heightened Def Con from 0.007 ++++++to 0.007
Heightened Def Con from 0.007 ++to 0.007
Heightened Def Con from 0.007 +to 0.007
Heightened Def Con from 0.007 to 0.007
Heightened Def Con from 0.007 to 0.007
Heightened Def Con from 0.00700001 to 0.00700001
Heightened Def Con from 0.00700001 to 0.00700001
Heightened Def Con from 0.00700001 to 0.00700001
Heightened Def Con from 0.00700001 to 0.00700001
Heightened Def Con from 0.00700001 to 0.00700001
Heightened Def Con from 0.00700001 to 0.00700001
Heightened Def Con from 0.00700001 to 0.00700001
Heightened Def Con from 0.00700001 to 0.00700002
Heightened Def Con from 0.00700002 to 0.00700002
Heightened Def Con from 0.00700002 to 0.00700002
Heightened Def Con from 0.00700002 +to 0.00700002
Heightened Def Con from 0.00700002 to 0.00700003
Heightened Def Con from 0.00700003 ++to 0.00700003
Heightened Def Con from 0.0072 +to 0.0072
Heightened Def Con from 0.0072 +to 0.0072
Heightened Def Con from 0.0072 to 0.0072
Heightened Def Con from 0.0072 to 0.0072
Heightened Def Con from 0.0072 to 0.0072
Heightened Def Con from 0.0072 to 0.0072
Heightened Def Con from 0.0072 to 0.0072
Heightened Def Con from 0.0072 +to 0.0072
Heightened Def Con from 0.00720001 to 0.00720001
Heightened Def Con from 0.00720001 to 0.00720001
Heightened Def Con from 0.00720001 to 0.00720001
Heightened Def Con from 0.00720001 to 0.00720001
Heightened Def Con from 0.00720001 to 0.00720001
Heightened Def Con from 0.00720001 to 0.00720001
Heightened Def Con from 0.00720001 to 0.00720001
Heightened Def Con from 0.00720001 to 0.00720001
Heightened Def Con from 0.00720001 to 0.00720001
Heightened Def Con from 0.00720001 to 0.00720001
Heightened Def Con from 0.00720002 to 0.00720002
Heightened Def Con from 0.00720002 to 0.00720002
Heightened Def Con from 0.00720002 to 0.00720002
Heightened Def Con from 0.00720002 to 0.00720003
Heightened Def Con from 0.00720003 to 0.00720003
Heightened Def Con from 0.00720003 to 0.00720003
Heightened Def Con from 0.00720003 to 0.00720003
Heightened Def Con from 0.00720003 to 0.00720003
Heightened Def Con from 0.00720003 to 0.00720003
Heightened Def Con from 0.00720003 +to 0.00720003
Heightened Def Con from 0.00720003 +to 0.00720004
Heightened Def Con from 0.00720004 +to 0.00720004
Heightened Def Con from 0.00720004 to 0.00720004
Heightened Def Con from 0.00720004 to 0.00720004
Heightened Def Con from 0.00720004 +to 0.00720004
Heightened Def Con from 0.00720004 to 0.00720004
Heightened Def Con from 0.00720004 to 0.00720004
Heightened Def Con from 0.00720004 +to 0.00720004
Heightened Def Con from 0.0074 to 0.0074
Heightened Def Con from 0.0074 +to 0.0074
Heightened Def Con from 0.0074 to 0.0074
Heightened Def Con from 0.0074 to 0.0074
Heightened Def Con from 0.0074 to 0.0074
Heightened Def Con from 0.0074 to 0.0074
Heightened Def Con from 0.0074 to 0.0074
Heightened Def Con from 0.0074 to 0.0074
Heightened Def Con from 0.0074 +to 0.00740001
Heightened Def Con from 0.00740001 to 0.00740001
Heightened Def Con from 0.00740001 ++to 0.00740001
Heightened Def Con from 0.00740009 to 0.00740009
Heightened Def Con from 0.00740009 to 0.00740009
Heightened Def Con from 0.00740009 to 0.00740009
Heightened Def Con from 0.00740009 ++to 0.0074001
Heightened Def Con from 0.0074001 to 0.0074001
Heightened Def Con from 0.0074001 to 0.00740011
Heightened Def Con from 0.00740011 +to 0.00740011
Heightened Def Con from 0.00740012 to 0.00740012
Heightened Def Con from 0.00740012 to 0.00740012
Heightened Def Con from 0.00740012 to 0.00740012
Heightened Def Con from 0.00740012 to 0.00740012
Heightened Def Con from 0.00740012 to 0.00740012
Heightened Def Con from 0.00740012 +to 0.00740012
Heightened Def Con from 0.00740012 to 0.00740012
Heightened Def Con from 0.00740012 +to 0.00740012
Heightened Def Con from 0.00740012 to 0.00740012
Heightened Def Con from 0.00740012 to 0.00740012
Heightened Def Con from 0.00740012 to 0.00740012
Heightened Def Con from 0.00740012 to 0.00740012
Heightened Def Con from 0.00740012 to 0.00740012
Heightened Def Con from 0.00740012 +to 0.00740012
Heightened Def Con from 0.00740012 to 0.00740012
Heightened Def Con from 0.00740012 +to 0.00740013
Heightened Def Con from 0.00740013 to 0.00740013
Heightened Def Con from 0.00740013 to 0.00740013
Heightened Def Con from 0.00740013 +to 0.00740013
Heightened Def Con from 0.00740013 to 0.00740013
Heightened Def Con from 0.00740013 to 0.00740013
Heightened Def Con from 0.00740013 +to 0.00740013
Heightened Def Con from 0.00740013 +to 0.00740013
Heightened Def Con from 0.00740014 to 0.00740014
Heightened Def Con from 0.00740014 to 0.00740014
Heightened Def Con from 0.00740014 to 0.00740014
Heightened Def Con from 0.00740014 to 0.00740014
Heightened Def Con from 0.00740014 to 0.00740014
Heightened Def Con from 0.00740014 to 0.00740014
Heightened Def Con from 0.00740014 to 0.00740014
Heightened Def Con from 0.00740014 to 0.00740014
Heightened Def Con from 0.00740014 to 0.00740014
Heightened Def Con from 0.00740014 to 0.00740014
Heightened Def Con from 0.00740014 to 0.00740014
Heightened Def Con from 0.00740014 to 0.00740014
Heightened Def Con from 0.00740014 to 0.00740014
Heightened Def Con from 0.00740014 to 0.00740014
Heightened Def Con from 0.00740014 to 0.00740014
Heightened Def Con from 0.00740014 to 0.00740014
Heightened Def Con from 0.00740015 to 0.00740015
Heightened Def Con from 0.00740015 to 0.00740015
Heightened Def Con from 0.00740015 to 0.00740015
Heightened Def Con from 0.00740015 +to 0.00740015
Heightened Def Con from 0.00740015 to 0.00740015
Heightened Def Con from 0.00740015 to 0.00740015
Heightened Def Con from 0.00740015 +to 0.00740015
Heightened Def Con from 0.00740015 +to 0.00740015
Heightened Def Con from 0.00740016 to 0.00740016
Heightened Def Con from 0.00740016 to 0.00740016
Heightened Def Con from 0.00740016 +to 0.00740016
Heightened Def Con from 0.00740016 to 0.00740016
Heightened Def Con from 0.00740016 to 0.00740016
Heightened Def Con from 0.00740016 to 0.00740016
Heightened Def Con from 0.00740016 +to 0.00740016
Heightened Def Con from 0.00740016 to 0.00740016
Heightened Def Con from 0.00740016 to 0.00740016
Heightened Def Con from 0.00740016 to 0.00740016
Heightened Def Con from 0.00740016 to 0.00740017
Heightened Def Con from 0.00740017 to 0.00740017
Heightened Def Con from 0.00740017 to 0.00740017
Heightened Def Con from 0.00740017 to 0.00740017
Heightened Def Con from 0.00740017 to 0.00740017
Heightened Def Con from 0.00740017 to 0.00740017
Heightened Def Con from 0.00740017 +to 0.00740017
Heightened Def Con from 0.00740017 to 0.00740017
Heightened Def Con from 0.00740017 to 0.00740017
Heightened Def Con from 0.00740017 to 0.00740017
Heightened Def Con from 0.00740018 to 0.00740018
Heightened Def Con from 0.00740018 to 0.00740018
Heightened Def Con from 0.00740019 to 0.00740019
Heightened Def Con from 0.00740019 +to 0.0074002
Heightened Def Con from 0.00740021 to 0.00740021
Heightened Def Con from 0.00740021 to 0.00740021
Heightened Def Con from 0.00740021 +to 0.00740021
Heightened Def Con from 0.00740021 to 0.00740021
Heightened Def Con from 0.00740021 to 0.00740021
Heightened Def Con from 0.00740021 to 0.00740021
Heightened Def Con from 0.00740021 +to 0.00740021
Heightened Def Con from 0.00740022 to 0.00740022
Heightened Def Con from 0.00740022 to 0.00740022
Heightened Def Con from 0.00740022 to 0.00740022
Heightened Def Con from 0.00740022 to 0.00740022
Heightened Def Con from 0.00740022 to 0.00740022
Heightened Def Con from 0.00740022 to 0.00740022
Heightened Def Con from 0.00740022 +to 0.00740022
Heightened Def Con from 0.00740023 to 0.00740023
Heightened Def Con from 0.00740023 to 0.00740023
Heightened Def Con from 0.00740023 to 0.00740023
Heightened Def Con from 0.00740023 to 0.00740023
Heightened Def Con from 0.00740023 +to 0.00740023
Heightened Def Con from 0.00740023 to 0.00740023
Heightened Def Con from 0.00740023 to 0.00740023
Heightened Def Con from 0.00740023 to 0.00740023
Heightened Def Con from 0.00740023 to 0.00740023
Heightened Def Con from 0.00740023 to 0.00740023
Heightened Def Con from 0.00740023 to 0.00740023
Heightened Def Con from 0.00740023 to 0.00740023
Heightened Def Con from 0.00740023 to 0.00740024
Heightened Def Con from 0.00740024 to 0.00740024
Heightened Def Con from 0.00740024 to 0.00740024
Heightened Def Con from 0.00740024 to 0.00740024
Heightened Def Con from 0.00740024 to 0.00740024
Heightened Def Con from 0.00740024 to 0.00740024
Heightened Def Con from 0.00740024 +to 0.00740024
Heightened Def Con from 0.00740025 to 0.00740025
Heightened Def Con from 0.00740025 to 0.00740025
Heightened Def Con from 0.00740025 to 0.00740025
Heightened Def Con from 0.00740025 ++to 0.00740025
Heightened Def Con from 0.00740026 +to 0.00740026
Heightened Def Con from 0.00740026 to 0.00740026
Heightened Def Con from 0.00740026 to 0.00740026
Heightened Def Con from 0.00740026 to 0.00740026
Heightened Def Con from 0.00740026 +to 0.00740026
Heightened Def Con from 0.00740027 to 0.00740027
Heightened Def Con from 0.00740027 to 0.00740027
Heightened Def Con from 0.00740027 +to 0.00740027
Heightened Def Con from 0.00740027 +to 0.00740027
Heightened Def Con from 0.00740027 to 0.00740027
Heightened Def Con from 0.00740027 to 0.00740027
Heightened Def Con from 0.00740027 to 0.00740027
Heightened Def Con from 0.00740027 to 0.00740028
Heightened Def Con from 0.00740028 +to 0.00740028
Heightened Def Con from 0.00740028 to 0.00740028
Heightened Def Con from 0.00740028 to 0.00740028
Heightened Def Con from 0.00740028 to 0.00740028
Heightened Def Con from 0.00740028 to 0.00740028
Heightened Def Con from 0.00740028 to 0.00740028
Heightened Def Con from 0.00740028 to 0.00740028
Heightened Def Con from 0.00740028 to 0.00740028
Heightened Def Con from 0.00740028 to 0.00740028
Heightened Def Con from 0.00740029 to 0.00740029
Heightened Def Con from 0.00740029 to 0.00740029
Heightened Def Con from 0.00740029 to 0.0074003
Heightened Def Con from 0.0074003 +to 0.0074003
Heightened Def Con from 0.00740037 +to 0.00740037
Heightened Def Con from 0.00740037 to 0.00740037
Heightened Def Con from 0.00740037 to 0.00740037
Heightened Def Con from 0.00740037 +to 0.00740037
Heightened Def Con from 0.00740037 to 0.00740038
Heightened Def Con from 0.00740038 to 0.00740038
Heightened Def Con from 0.00740038 to 0.00740038
Heightened Def Con from 0.00740038 to 0.00740038
Heightened Def Con from 0.00740038 to 0.00740038
Heightened Def Con from 0.00740038 +to 0.00740038
Heightened Def Con from 0.00740038 to 0.00740038
Heightened Def Con from 0.00740038 to 0.00740038
Heightened Def Con from 0.00740038 to 0.00740038
Heightened Def Con from 0.00740038 to 0.00740038
Heightened Def Con from 0.00740038 to 0.00740038
Heightened Def Con from 0.00740038 to 0.00740038
Heightened Def Con from 0.00740038 to 0.00740039
Heightened Def Con from 0.00740039 to 0.00740039
Heightened Def Con from 0.00740039 +to 0.00740039
Heightened Def Con from 0.00740039 to 0.00740039
Heightened Def Con from 0.00740039 to 0.00740039
Heightened Def Con from 0.00740039 +to 0.00740039
Heightened Def Con from 0.00740039 to 0.00740039
Heightened Def Con from 0.00740039 +to 0.0074004
Heightened Def Con from 0.0074004 to 0.0074004
Heightened Def Con from 0.0074004 to 0.0074004
Heightened Def Con from 0.0074004 to 0.0074004
Heightened Def Con from 0.0074004 ++to 0.0074004
Heightened Def Con from 0.0074004 to 0.0074004
Heightened Def Con from 0.0074004 to 0.0074004
Heightened Def Con from 0.0074004 to 0.0074004
Heightened Def Con from 0.00740041 to 0.00740041
Heightened Def Con from 0.00740041 to 0.00740041
Heightened Def Con from 0.0076 +to 0.0076
Heightened Def Con from 0.0076 to 0.0076
Heightened Def Con from 0.0076 to 0.0076
Heightened Def Con from 0.0076 to 0.0076
Heightened Def Con from 0.00760001 to 0.00760001
Heightened Def Con from 0.00760001 to 0.00760001
Heightened Def Con from 0.00760001 to 0.00760001
Heightened Def Con from 0.00760001 +to 0.00760001
Heightened Def Con from 0.00760001 to 0.00760001
Heightened Def Con from 0.00760001 to 0.00760001
Heightened Def Con from 0.00760001 to 0.00760001
Heightened Def Con from 0.00760001 to 0.00760001
Heightened Def Con from 0.00760001 to 0.00760002
Heightened Def Con from 0.00760002 to 0.00760002
Heightened Def Con from 0.00760002 to 0.00760002
Heightened Def Con from 0.00760002 to 0.00760002
Heightened Def Con from 0.00760002 to 0.00760002
Heightened Def Con from 0.00760002 to 0.00760002
Heightened Def Con from 0.00760002 to 0.00760002
Heightened Def Con from 0.00760002 +to 0.00760002
Heightened Def Con from 0.00760002 to 0.00760002
Heightened Def Con from 0.00760002 to 0.00760002
Heightened Def Con from 0.00760002 to 0.00760002
Heightened Def Con from 0.00760002 to 0.00760002
Heightened Def Con from 0.00760002 to 0.00760003
Heightened Def Con from 0.00760003 to 0.00760003
Heightened Def Con from 0.00760003 to 0.00760003
Heightened Def Con from 0.00760003 to 0.00760003
Heightened Def Con from 0.00760003 to 0.00760003
Heightened Def Con from 0.00760003 to 0.00760003
Heightened Def Con from 0.00760003 +to 0.00760003
Heightened Def Con from 0.00760004 to 0.00760004
Heightened Def Con from 0.00760004 to 0.00760004
Heightened Def Con from 0.00760004 to 0.00760004
Heightened Def Con from 0.00760004 to 0.00760004
Heightened Def Con from 0.00760004 +to 0.00760004
Heightened Def Con from 0.00760004 to 0.00760004
Heightened Def Con from 0.00760004 to 0.00760005
Heightened Def Con from 0.00760005 to 0.00760005
Heightened Def Con from 0.00760005 to 0.00760005
Heightened Def Con from 0.00760005 to 0.00760005
Heightened Def Con from 0.00760005 to 0.00760005
Heightened Def Con from 0.00760005 +to 0.00760005
Heightened Def Con from 0.00760005 to 0.00760005
Heightened Def Con from 0.00760005 to 0.00760005
Heightened Def Con from 0.00760006 to 0.00760006
Heightened Def Con from 0.00760006 to 0.00760006
Heightened Def Con from 0.00760006 to 0.00760006
Heightened Def Con from 0.00760006 to 0.00760006
Heightened Def Con from 0.00760006 +to 0.00760006
Heightened Def Con from 0.00760006 to 0.00760006
Heightened Def Con from 0.0078 +to 0.0078
Heightened Def Con from 0.0078 to 0.0078
Heightened Def Con from 0.0078 to 0.0078
Heightened Def Con from 0.0078 to 0.0078
Heightened Def Con from 0.0078 to 0.0078
Heightened Def Con from 0.0078 to 0.00780001
Heightened Def Con from 0.00780001 to 0.00780001
Heightened Def Con from 0.00780001 to 0.00780001
Heightened Def Con from 0.00780001 to 0.00780001
Heightened Def Con from 0.00780001 to 0.00780001
Heightened Def Con from 0.00780001 to 0.00780001
Heightened Def Con from 0.00780001 to 0.00780001
Heightened Def Con from 0.00780001 to 0.00780001
Heightened Def Con from 0.00780001 to 0.00780001
Heightened Def Con from 0.00780001 to 0.00780002
Heightened Def Con from 0.00780002 to 0.00780002
Heightened Def Con from 0.00780002 to 0.00780002
Heightened Def Con from 0.00780002 to 0.00780002
Heightened Def Con from 0.00780002 to 0.00780002
Heightened Def Con from 0.00780002 to 0.00780002
Heightened Def Con from 0.00780002 to 0.00780002
Heightened Def Con from 0.00780002 to 0.00780002
Heightened Def Con from 0.00780002 to 0.00780002
Heightened Def Con from 0.00780002 to 0.00780003
Heightened Def Con from 0.00780003 +to 0.00780003
Heightened Def Con from 0.00780004 to 0.00780004
Heightened Def Con from 0.00780004 to 0.00780004
Heightened Def Con from 0.00780004 to 0.00780004
Heightened Def Con from 0.00780004 to 0.00780004
Heightened Def Con from 0.00780005 to 0.00780005
Heightened Def Con from 0.00780005 to 0.00780005
Heightened Def Con from 0.00780005 to 0.00780005
Heightened Def Con from 0.00780005 to 0.00780005
Heightened Def Con from 0.00780005 to 0.00780005
Heightened Def Con from 0.00780005 to 0.00780005
Heightened Def Con from 0.00780005 +to 0.00780006
Heightened Def Con from 0.00780008 to 0.00780008
Heightened Def Con from 0.00780008 to 0.00780008
Heightened Def Con from 0.00780008 to 0.00780008
Heightened Def Con from 0.00780008 to 0.00780008
Heightened Def Con from 0.00780008 to 0.00780008
Heightened Def Con from 0.00780008 to 0.00780008
Heightened Def Con from 0.00780008 to 0.00780008
Heightened Def Con from 0.00780009 to 0.00780009
Heightened Def Con from 0.00780009 to 0.00780009
Heightened Def Con from 0.0078001 to 0.0078001
Heightened Def Con from 0.0078001 to 0.0078001
Heightened Def Con from 0.0078001 to 0.0078001
Heightened Def Con from 0.0078001 to 0.0078001
Heightened Def Con from 0.0078001 to 0.0078001
Heightened Def Con from 0.0078001 to 0.0078001
Heightened Def Con from 0.0078001 to 0.0078001
Heightened Def Con from 0.0078001 to 0.0078001
Heightened Def Con from 0.0078001 to 0.0078001
Heightened Def Con from 0.0078001 ++to 0.00780011
Heightened Def Con from 0.00780011 +to 0.00780011
Heightened Def Con from 0.00780011 to 0.00780012
Heightened Def Con from 0.00780012 +to 0.00780012
Heightened Def Con from 0.00780012 to 0.00780012
Heightened Def Con from 0.00780012 to 0.00780012
Heightened Def Con from 0.00780012 to 0.00780012
Heightened Def Con from 0.00780012 to 0.00780013
Heightened Def Con from 0.00780013 to 0.00780013
Heightened Def Con from 0.00780013 to 0.00780013
Heightened Def Con from 0.00780013 to 0.00780013
Heightened Def Con from 0.00780013 ++to 0.00780013
Heightened Def Con from 0.00780018 to 0.00780018
Heightened Def Con from 0.00780018 to 0.00780018
Heightened Def Con from 0.00780018 to 0.00780018
Heightened Def Con from 0.00780018 to 0.00780018
Heightened Def Con from 0.00780018 to 0.00780018
Heightened Def Con from 0.00780018 to 0.00780018
Heightened Def Con from 0.00780018 +to 0.00780019
Heightened Def Con from 0.00780019 to 0.00780019
Heightened Def Con from 0.00780019 to 0.00780019
Heightened Def Con from 0.00780019 to 0.00780019
Heightened Def Con from 0.00780019 to 0.00780019
Heightened Def Con from 0.00780019 to 0.00780019
Heightened Def Con from 0.00780019 +to 0.0078002
Heightened Def Con from 0.0078002 to 0.0078002
Heightened Def Con from 0.0078002 to 0.0078002
Heightened Def Con from 0.0078002 to 0.0078002
Heightened Def Con from 0.0078002 to 0.0078002
Heightened Def Con from 0.0078002 to 0.0078002
Heightened Def Con from 0.0078002 to 0.0078002
Heightened Def Con from 0.0078002 to 0.0078002
Heightened Def Con from 0.0078002 to 0.0078002
Heightened Def Con from 0.0078002 to 0.0078002
Heightened Def Con from 0.0078002 to 0.0078002
Heightened Def Con from 0.00780021 to 0.00780021
Heightened Def Con from 0.00780023 to 0.00780023
Heightened Def Con from 0.00780023 +to 0.00780023
Heightened Def Con from 0.00780023 to 0.00780023
Heightened Def Con from 0.00780023 to 0.00780023
Heightened Def Con from 0.00780023 +to 0.00780023
Heightened Def Con from 0.00780023 to 0.00780023
Heightened Def Con from 0.00780023 to 0.00780024
Heightened Def Con from 0.00780024 to 0.00780024
Heightened Def Con from 0.00780024 to 0.00780024
Heightened Def Con from 0.00780024 +to 0.00780024
Heightened Def Con from 0.00780024 to 0.00780024
Heightened Def Con from 0.00780025 to 0.00780025
Heightened Def Con from 0.00780025 to 0.00780025
Heightened Def Con from 0.00780025 to 0.00780025
Heightened Def Con from 0.00780025 to 0.00780025
Heightened Def Con from 0.00780025 to 0.00780025
Heightened Def Con from 0.00780025 +to 0.00780025
Heightened Def Con from 0.00780025 to 0.00780025
Heightened Def Con from 0.00780025 to 0.00780025
Heightened Def Con from 0.00780025 to 0.00780025
Heightened Def Con from 0.00780025 to 0.00780025
Heightened Def Con from 0.00780025 to 0.00780026
Heightened Def Con from 0.00780026 to 0.00780026
Heightened Def Con from 0.00780026 to 0.00780026
Heightened Def Con from 0.00780026 to 0.00780026
Heightened Def Con from 0.00780026 to 0.00780026
Heightened Def Con from 0.00780027 to 0.00780027
Heightened Def Con from 0.00780027 to 0.00780027
Heightened Def Con from 0.00780027 to 0.00780027
Heightened Def Con from 0.00780027 to 0.00780027
Heightened Def Con from 0.00780027 to 0.00780027
Heightened Def Con from 0.00780027 to 0.00780027
Heightened Def Con from 0.00780027 to 0.00780027
Heightened Def Con from 0.00780028 +to 0.00780028
Heightened Def Con from 0.00780029 to 0.00780029
Heightened Def Con from 0.00780029 to 0.00780029
Heightened Def Con from 0.00780029 to 0.00780029
Heightened Def Con from 0.00780029 to 0.00780029
Heightened Def Con from 0.00780029 to 0.00780029
Heightened Def Con from 0.00780029 to 0.00780029
Heightened Def Con from 0.00780029 to 0.00780029
Heightened Def Con from 0.0078003 to 0.0078003
Heightened Def Con from 0.0078003 to 0.0078003
Heightened Def Con from 0.0078003 to 0.0078003
Heightened Def Con from 0.0078003 to 0.0078003
Heightened Def Con from 0.0078003 to 0.0078003
Heightened Def Con from 0.0078003 +to 0.00780031
Heightened Def Con from 0.008 ++++++to 0.008
Heightened Def Con from 0.008 +to 0.008
Heightened Def Con from 0.008 to 0.008
Heightened Def Con from 0.008 to 0.008
Heightened Def Con from 0.008 to 0.008
Heightened Def Con from 0.00800001 to 0.00800001
Heightened Def Con from 0.00800001 to 0.00800001
Heightened Def Con from 0.00800001 to 0.00800001
Heightened Def Con from 0.00800001 to 0.00800001
Heightened Def Con from 0.00800001 to 0.00800001
Heightened Def Con from 0.00800001 to 0.00800001
Heightened Def Con from 0.00800001 to 0.00800001
Heightened Def Con from 0.00800001 to 0.00800001
Heightened Def Con from 0.00800001 to 0.00800001
Heightened Def Con from 0.00800001 +to 0.00800001
Heightened Def Con from 0.00800002 to 0.00800002
Heightened Def Con from 0.00800002 to 0.00800002
Heightened Def Con from 0.00800002 to 0.00800002
Heightened Def Con from 0.00800002 to 0.00800002
Heightened Def Con from 0.00800002 +to 0.00800003
Heightened Def Con from 0.00800003 to 0.00800004
Heightened Def Con from 0.00800004 to 0.00800004
Heightened Def Con from 0.00800004 +to 0.00800004
Heightened Def Con from 0.00800004 to 0.00800004
Heightened Def Con from 0.00800004 to 0.00800004
Heightened Def Con from 0.00800004 to 0.00800004
Heightened Def Con from 0.00800004 to 0.00800004
Heightened Def Con from 0.00800004 to 0.00800004
Heightened Def Con from 0.00800004 to 0.00800004
Heightened Def Con from 0.00800004 to 0.00800004
Heightened Def Con from 0.00800005 to 0.00800005
Heightened Def Con from 0.00800005 to 0.00800005
Heightened Def Con from 0.00800005 to 0.00800005
Heightened Def Con from 0.00800005 +to 0.00800005
Heightened Def Con from 0.00800005 to 0.00800005
Heightened Def Con from 0.00800005 to 0.00800005
Heightened Def Con from 0.00800005 to 0.00800005
Heightened Def Con from 0.00800005 to 0.00800005
Heightened Def Con from 0.00800005 to 0.00800005
Heightened Def Con from 0.00800005 to 0.00800005
Heightened Def Con from 0.00800005 +to 0.00800006
Heightened Def Con from 0.0082 to 0.0082
Heightened Def Con from 0.0082 to 0.0082
Heightened Def Con from 0.0082 to 0.0082
Heightened Def Con from 0.0082 to 0.0082
Heightened Def Con from 0.00820001 to 0.00820001
Heightened Def Con from 0.0084 +++++to 0.0084
Heightened Def Con from 0.0084 to 0.0084
Heightened Def Con from 0.0084 to 0.0084
Heightened Def Con from 0.0084 to 0.0084
Heightened Def Con from 0.0084 to 0.0084
Heightened Def Con from 0.0084 +to 0.0084
Heightened Def Con from 0.0084 to 0.0084
Heightened Def Con from 0.0084 to 0.0084
Heightened Def Con from 0.0084 to 0.0084
Heightened Def Con from 0.0084 to 0.0084
Heightened Def Con from 0.0084 to 0.00840001
Heightened Def Con from 0.00840001 to 0.00840001
Heightened Def Con from 0.00840001 to 0.00840001
Heightened Def Con from 0.00840001 to 0.00840001
Heightened Def Con from 0.00840001 to 0.00840001
Heightened Def Con from 0.00840001 to 0.00840001
Heightened Def Con from 0.00840001 to 0.00840001
Heightened Def Con from 0.00840001 to 0.00840001
Heightened Def Con from 0.00840001 to 0.00840001
Heightened Def Con from 0.00840001 to 0.00840001
Heightened Def Con from 0.00840001 to 0.00840002
Heightened Def Con from 0.00840002 to 0.00840002
Heightened Def Con from 0.00840002 to 0.00840002
Heightened Def Con from 0.00840002 +to 0.00840002
Heightened Def Con from 0.00840008 to 0.00840009
Heightened Def Con from 0.00840009 to 0.00840009
Heightened Def Con from 0.00840009 to 0.00840009
Heightened Def Con from 0.00840009 to 0.00840009
Heightened Def Con from 0.00840009 to 0.00840009
Heightened Def Con from 0.00840009 to 0.0084001
Heightened Def Con from 0.0084001 to 0.0084001
Heightened Def Con from 0.0084001 to 0.0084001
Heightened Def Con from 0.0084001 to 0.0084001
Heightened Def Con from 0.0084001 to 0.0084001
Heightened Def Con from 0.0084001 +to 0.0084001
Heightened Def Con from 0.0084001 to 0.0084001
Heightened Def Con from 0.0084001 to 0.0084001
Heightened Def Con from 0.0084001 to 0.0084001
Heightened Def Con from 0.0084001 to 0.0084001
Heightened Def Con from 0.0084001 to 0.0084001
Heightened Def Con from 0.0084001 to 0.0084001
Heightened Def Con from 0.0084001 to 0.0084001
Heightened Def Con from 0.0084001 +to 0.0084001
Heightened Def Con from 0.0084001 to 0.00840011
Heightened Def Con from 0.00840011 to 0.00840011
Heightened Def Con from 0.00840011 to 0.00840011
Heightened Def Con from 0.00840011 to 0.00840011
Heightened Def Con from 0.00840011 to 0.00840011
Heightened Def Con from 0.00840011 to 0.00840011
Heightened Def Con from 0.00840011 to 0.00840011
Heightened Def Con from 0.00840012 to 0.00840012
Heightened Def Con from 0.00840012 to 0.00840012
Heightened Def Con from 0.00840012 +to 0.00840012
Heightened Def Con from 0.00840012 to 0.00840012
Heightened Def Con from 0.00840012 to 0.00840012
Heightened Def Con from 0.00840012 to 0.00840012
Heightened Def Con from 0.00840012 to 0.00840012
Heightened Def Con from 0.00840012 to 0.00840012
Heightened Def Con from 0.00840012 to 0.00840012
Heightened Def Con from 0.00840012 to 0.00840012
Heightened Def Con from 0.00840012 to 0.00840012
Heightened Def Con from 0.00840012 to 0.00840012
Heightened Def Con from 0.00840012 +to 0.00840012
Heightened Def Con from 0.00840012 to 0.00840012
Heightened Def Con from 0.00840012 to 0.00840012
Heightened Def Con from 0.00840012 to 0.00840012
Heightened Def Con from 0.00840012 +to 0.00840013
Heightened Def Con from 0.00840013 +to 0.00840013
Heightened Def Con from 0.00840013 to 0.00840013
Heightened Def Con from 0.00840013 to 0.00840013
Heightened Def Con from 0.00840013 to 0.00840013
Heightened Def Con from 0.00840013 to 0.00840013
Heightened Def Con from 0.00840013 to 0.00840013
Heightened Def Con from 0.00840013 to 0.00840013
Heightened Def Con from 0.00840013 to 0.00840013
Heightened Def Con from 0.00840013 to 0.00840013
Heightened Def Con from 0.00840013 to 0.00840013
Heightened Def Con from 0.00840013 to 0.00840013
Heightened Def Con from 0.00840013 to 0.00840014
Heightened Def Con from 0.00840014 to 0.00840014
Heightened Def Con from 0.00840014 to 0.00840014
Heightened Def Con from 0.00840014 to 0.00840014
Heightened Def Con from 0.0086 +to 0.0086
Heightened Def Con from 0.0086 to 0.0086
Heightened Def Con from 0.0086 to 0.0086
Heightened Def Con from 0.0086 to 0.0086
Heightened Def Con from 0.0086 to 0.0086
Heightened Def Con from 0.0086 to 0.0086
Heightened Def Con from 0.0086 to 0.0086
Heightened Def Con from 0.0086 +to 0.0086
Heightened Def Con from 0.0086 to 0.00860001
Heightened Def Con from 0.00860001 to 0.00860001
Heightened Def Con from 0.00860001 to 0.00860001
Heightened Def Con from 0.00860001 +to 0.00860001
Heightened Def Con from 0.00860001 to 0.00860001
Heightened Def Con from 0.00860001 to 0.00860001
Heightened Def Con from 0.00860001 to 0.00860002
Heightened Def Con from 0.00860002 to 0.00860002
Heightened Def Con from 0.00860002 +to 0.00860002
Heightened Def Con from 0.00860002 +to 0.00860002
Heightened Def Con from 0.00860002 to 0.00860002
Heightened Def Con from 0.00860002 to 0.00860002
Heightened Def Con from 0.00860002 ++to 0.00860002
Heightened Def Con from 0.00860002 to 0.00860002
Heightened Def Con from 0.00860002 to 0.00860002
Heightened Def Con from 0.00860002 to 0.00860002
Heightened Def Con from 0.00860002 to 0.00860002
Heightened Def Con from 0.00860002 to 0.00860002
Heightened Def Con from 0.00860002 to 0.00860002
Heightened Def Con from 0.00860002 to 0.00860002
Heightened Def Con from 0.00860002 +to 0.00860002
Heightened Def Con from 0.00860002 +to 0.00860002
Heightened Def Con from 0.00860002 +to 0.00860002
Heightened Def Con from 0.00860002 to 0.00860002
Heightened Def Con from 0.00860002 to 0.00860002
Heightened Def Con from 0.00860002 to 0.00860002
Heightened Def Con from 0.00860002 +to 0.00860003
Heightened Def Con from 0.00860003 to 0.00860003
Heightened Def Con from 0.00860003 to 0.00860003
Heightened Def Con from 0.00860003 +to 0.00860003
Heightened Def Con from 0.00860003 +to 0.00860003
Heightened Def Con from 0.00860003 to 0.00860003
Heightened Def Con from 0.00860003 to 0.00860003
Heightened Def Con from 0.00860003 +to 0.00860003
Heightened Def Con from 0.00860003 to 0.00860003
Heightened Def Con from 0.00860003 +to 0.00860003
Heightened Def Con from 0.00860004 to 0.00860004
Heightened Def Con from 0.00860004 to 0.00860004
Heightened Def Con from 0.00860004 to 0.00860004
Heightened Def Con from 0.00860004 to 0.00860005
Heightened Def Con from 0.00860005 to 0.00860005
Heightened Def Con from 0.00860005 to 0.00860005
Heightened Def Con from 0.00860005 +to 0.00860005
Heightened Def Con from 0.00860005 to 0.00860005
Heightened Def Con from 0.00860005 to 0.00860005
Heightened Def Con from 0.00860005 to 0.00860005
Heightened Def Con from 0.00860005 to 0.00860005
Heightened Def Con from 0.00860005 to 0.00860005
Heightened Def Con from 0.00860005 to 0.00860005
Heightened Def Con from 0.00860005 +to 0.00860005
Heightened Def Con from 0.00860005 to 0.00860005
Heightened Def Con from 0.00860005 +to 0.00860006
Heightened Def Con from 0.00860006 +to 0.00860006
Heightened Def Con from 0.00860006 +to 0.00860006
Heightened Def Con from 0.00860006 to 0.00860006
Heightened Def Con from 0.00860006 +to 0.00860006
Heightened Def Con from 0.00860006 +to 0.00860006
Heightened Def Con from 0.00860006 to 0.00860006
Heightened Def Con from 0.00860006 ++to 0.00860007
Heightened Def Con from 0.00860007 to 0.00860007
Heightened Def Con from 0.00860007 to 0.00860007
Heightened Def Con from 0.00860007 to 0.00860007
Heightened Def Con from 0.00860007 to 0.00860007
Heightened Def Con from 0.00860007 to 0.00860007
Heightened Def Con from 0.00860007 to 0.00860007
Heightened Def Con from 0.00860007 to 0.00860007
Heightened Def Con from 0.00860007 to 0.00860007
Heightened Def Con from 0.00860007 to 0.00860007
Heightened Def Con from 0.00860007 to 0.00860007
Heightened Def Con from 0.00860007 +to 0.00860007
Heightened Def Con from 0.00860007 +to 0.00860007
Heightened Def Con from 0.00860007 to 0.00860007
Heightened Def Con from 0.00860007 to 0.00860007
Heightened Def Con from 0.00860007 +to 0.00860007
Heightened Def Con from 0.00860008 to 0.00860008
Heightened Def Con from 0.00860008 +to 0.00860008
Heightened Def Con from 0.00860008 to 0.00860008
Heightened Def Con from 0.00860009 to 0.00860009
Heightened Def Con from 0.00860009 to 0.00860009
Heightened Def Con from 0.00860009 to 0.00860009
Heightened Def Con from 0.00860009 to 0.00860009
Heightened Def Con from 0.00860009 to 0.00860009
Heightened Def Con from 0.00860009 to 0.00860009
Heightened Def Con from 0.00860009 to 0.00860009
Heightened Def Con from 0.00860009 to 0.00860009
Heightened Def Con from 0.00860009 to 0.00860009
Heightened Def Con from 0.00860009 to 0.0086001
Heightened Def Con from 0.0086001 to 0.0086001
Heightened Def Con from 0.0086001 to 0.0086001
Heightened Def Con from 0.0086001 to 0.0086001
Heightened Def Con from 0.0086001 to 0.0086001
Heightened Def Con from 0.0086001 to 0.0086001
Heightened Def Con from 0.0086001 to 0.0086001
Heightened Def Con from 0.0086001 to 0.0086001
Heightened Def Con from 0.0086001 to 0.0086001
Heightened Def Con from 0.0086001 +to 0.0086001
Heightened Def Con from 0.0086001 to 0.0086001
Heightened Def Con from 0.0086001 to 0.0086001
Heightened Def Con from 0.0086001 to 0.0086001
Heightened Def Con from 0.0086001 +to 0.00860011
Heightened Def Con from 0.00860011 to 0.00860011
Heightened Def Con from 0.00860011 +to 0.00860011
Heightened Def Con from 0.00860011 to 0.00860011
Heightened Def Con from 0.00860011 to 0.00860011
Heightened Def Con from 0.00860011 to 0.00860011
Heightened Def Con from 0.00860011 to 0.00860011
Heightened Def Con from 0.00860011 to 0.00860011
Heightened Def Con from 0.00860011 to 0.00860011
Heightened Def Con from 0.00860011 +to 0.00860012
Heightened Def Con from 0.00860012 to 0.00860012
Heightened Def Con from 0.00860012 to 0.00860012
Heightened Def Con from 0.00860012 to 0.00860012
Heightened Def Con from 0.00860012 to 0.00860012
Heightened Def Con from 0.00860012 to 0.00860012
Heightened Def Con from 0.00860012 to 0.00860012
Heightened Def Con from 0.00860012 to 0.00860012
Heightened Def Con from 0.00860012 to 0.00860012
Heightened Def Con from 0.00860012 to 0.00860012
Heightened Def Con from 0.00860012 to 0.00860012
Heightened Def Con from 0.00860012 to 0.00860012
Heightened Def Con from 0.00860012 to 0.00860012
Heightened Def Con from 0.00860012 to 0.00860012
Heightened Def Con from 0.00860012 +to 0.00860012
Heightened Def Con from 0.00860012 +to 0.00860013
Heightened Def Con from 0.00860013 to 0.00860013
Heightened Def Con from 0.00860013 to 0.00860013
Heightened Def Con from 0.00860013 +to 0.00860013
Heightened Def Con from 0.00860013 to 0.00860013
Heightened Def Con from 0.00860013 to 0.00860013
Heightened Def Con from 0.00860013 to 0.00860013
Heightened Def Con from 0.00860013 to 0.00860013
Heightened Def Con from 0.00860013 +to 0.00860013
Heightened Def Con from 0.00860013 +to 0.00860013
Heightened Def Con from 0.00860014 to 0.00860014
Heightened Def Con from 0.00860014 to 0.00860014
Heightened Def Con from 0.00860014 to 0.00860014
Heightened Def Con from 0.00860014 to 0.00860014
Heightened Def Con from 0.00860014 to 0.00860014
Heightened Def Con from 0.00860014 to 0.00860014
Heightened Def Con from 0.00860014 to 0.00860014
Heightened Def Con from 0.00860014 to 0.00860014
Heightened Def Con from 0.00860014 to 0.00860014
Heightened Def Con from 0.00860014 to 0.00860014
Heightened Def Con from 0.00860014 to 0.00860014
Heightened Def Con from 0.00860015 to 0.00860016
Heightened Def Con from 0.00860016 to 0.00860016
Heightened Def Con from 0.00860016 to 0.00860016
Heightened Def Con from 0.00860016 to 0.00860016
Heightened Def Con from 0.00860016 +to 0.00860016
Heightened Def Con from 0.00860016 to 0.00860016
Heightened Def Con from 0.00860016 to 0.00860016
Heightened Def Con from 0.00860016 to 0.00860016
Heightened Def Con from 0.00860016 to 0.00860016
Heightened Def Con from 0.00860016 +to 0.00860016
Heightened Def Con from 0.00860016 to 0.00860017
Heightened Def Con from 0.00860017 +to 0.00860017
Heightened Def Con from 0.00860017 +to 0.00860017
Heightened Def Con from 0.00860017 to 0.00860017
Heightened Def Con from 0.00860017 to 0.00860017
Heightened Def Con from 0.00860017 to 0.00860017
Heightened Def Con from 0.00860017 to 0.00860017
Heightened Def Con from 0.00860017 +to 0.00860017
Heightened Def Con from 0.00860017 to 0.00860017
Heightened Def Con from 0.00860017 +to 0.00860018
Heightened Def Con from 0.00860018 to 0.00860018
Heightened Def Con from 0.00860018 to 0.00860018
Heightened Def Con from 0.00860018 to 0.00860018
Heightened Def Con from 0.00860018 to 0.00860018
Heightened Def Con from 0.00860018 +to 0.00860018
Heightened Def Con from 0.0088 ++to 0.0088
Heightened Def Con from 0.0088 to 0.0088
Heightened Def Con from 0.0088 +to 0.0088
Heightened Def Con from 0.0088 to 0.0088
Heightened Def Con from 0.0088 to 0.0088
Heightened Def Con from 0.0088 +to 0.0088
Heightened Def Con from 0.0088 to 0.00880001
Heightened Def Con from 0.00880001 to 0.00880001
Heightened Def Con from 0.00880001 to 0.00880001
Heightened Def Con from 0.00880001 ++to 0.00880001
Heightened Def Con from 0.00880001 to 0.00880001
Heightened Def Con from 0.00880001 to 0.00880001
Heightened Def Con from 0.00880001 +to 0.00880001
Heightened Def Con from 0.00880001 +to 0.00880002
Heightened Def Con from 0.00880002 to 0.00880002
Heightened Def Con from 0.00880002 to 0.00880002
Heightened Def Con from 0.00880002 +to 0.00880002
Heightened Def Con from 0.00880002 +to 0.00880002
Heightened Def Con from 0.00880002 to 0.00880002
Heightened Def Con from 0.00880002 to 0.00880002
Heightened Def Con from 0.00880002 to 0.00880002
Heightened Def Con from 0.00880002 ++to 0.00880002
Heightened Def Con from 0.009 +to 0.009
Heightened Def Con from 0.009 to 0.009
Heightened Def Con from 0.009 to 0.009
Heightened Def Con from 0.009 to 0.009
Heightened Def Con from 0.009 ++to 0.009
Heightened Def Con from 0.00900001 to 0.00900001
Heightened Def Con from 0.00900001 to 0.00900001
Heightened Def Con from 0.00900001 ++to 0.00900002
Heightened Def Con from 0.00900002 +to 0.00900002
Heightened Def Con from 0.00900002 +to 0.00900002
Heightened Def Con from 0.00900002 to 0.00900002
Heightened Def Con from 0.00900002 to 0.00900002
Heightened Def Con from 0.00900002 to 0.00900002
Heightened Def Con from 0.00900002 to 0.00900002
Heightened Def Con from 0.00900002 to 0.00900002
Heightened Def Con from 0.00900002 to 0.00900002
Heightened Def Con from 0.00900002 to 0.00900002
Heightened Def Con from 0.00900002 +to 0.00900002
Heightened Def Con from 0.00900002 to 0.00900002
Heightened Def Con from 0.00900002 +to 0.00900002
Heightened Def Con from 0.00900002 to 0.00900002
Heightened Def Con from 0.00900002 to 0.00900002
Heightened Def Con from 0.00900002 +to 0.00900003
Heightened Def Con from 0.00900003 to 0.00900003
Heightened Def Con from 0.00900003 to 0.00900003
Heightened Def Con from 0.00900003 to 0.00900003
Heightened Def Con from 0.00900003 to 0.00900003
Heightened Def Con from 0.00900003 to 0.00900003
Heightened Def Con from 0.00900003 to 0.00900003
Heightened Def Con from 0.00900003 to 0.00900003
Heightened Def Con from 0.00900003 to 0.00900003
Heightened Def Con from 0.00900003 +to 0.00900003
Heightened Def Con from 0.00900003 to 0.00900003
Heightened Def Con from 0.00900003 ++to 0.00900003
Heightened Def Con from 0.00900003 to 0.00900003
Heightened Def Con from 0.00900003 to 0.00900003
Heightened Def Con from 0.00900003 to 0.00900003
Heightened Def Con from 0.00900008 to 0.00900008
Heightened Def Con from 0.00900008 to 0.00900008
Heightened Def Con from 0.00900008 +to 0.00900008
Heightened Def Con from 0.00900009 +to 0.00900009
Heightened Def Con from 0.00900009 to 0.00900009
Heightened Def Con from 0.00900009 to 0.00900009
Heightened Def Con from 0.00900009 +to 0.00900009
Heightened Def Con from 0.00900009 to 0.00900009
Heightened Def Con from 0.00900009 to 0.00900009
Heightened Def Con from 0.00900009 to 0.00900009
Heightened Def Con from 0.00900009 ++to 0.00900009
Heightened Def Con from 0.0090001 +to 0.0090001
Heightened Def Con from 0.0090001 to 0.0090001
Heightened Def Con from 0.0090001 to 0.0090001
Heightened Def Con from 0.0090001 to 0.0090001
Heightened Def Con from 0.0090001 +to 0.0090001
Heightened Def Con from 0.0090001 to 0.0090001
Heightened Def Con from 0.0090001 +to 0.0090001
Heightened Def Con from 0.0090001 +to 0.0090001
Heightened Def Con from 0.0090001 +to 0.0090001
Heightened Def Con from 0.0090001 to 0.0090001
Heightened Def Con from 0.0090001 to 0.0090001
Heightened Def Con from 0.0090001 to 0.0090001
Heightened Def Con from 0.0090001 to 0.0090001
Heightened Def Con from 0.0090001 to 0.0090001
Heightened Def Con from 0.0090001 to 0.0090001
Heightened Def Con from 0.0090001 ++to 0.00900011
Heightened Def Con from 0.00900011 to 0.00900011
Heightened Def Con from 0.00900011 to 0.00900011
Heightened Def Con from 0.00900011 to 0.00900011
Heightened Def Con from 0.00900011 to 0.00900011
Heightened Def Con from 0.00900011 to 0.00900011
Heightened Def Con from 0.00900011 +to 0.00900011
Heightened Def Con from 0.00900011 +to 0.00900011
Heightened Def Con from 0.00900011 to 0.00900011
Heightened Def Con from 0.00900011 to 0.00900011
Heightened Def Con from 0.00900011 to 0.00900011
Heightened Def Con from 0.00900011 to 0.00900011
Heightened Def Con from 0.00900011 ++to 0.00900011
Heightened Def Con from 0.00900012 to 0.00900012
Heightened Def Con from 0.00900012 to 0.00900012
Heightened Def Con from 0.00900012 +to 0.00900012
Heightened Def Con from 0.00900012 to 0.00900012
Heightened Def Con from 0.00900012 +to 0.00900012
[...]
Heightened Def Con from 0.0186 to 0.0186
Heightened Def Con from 0.0186 +to 0.0186
Heightened Def Con from 0.0186 to 0.0186
Heightened Def Con from 0.0186 +to 0.0186
Heightened Def Con from 0.0186 to 0.0186
Heightened Def Con from 0.0186 to 0.0186
Heightened Def Con from 0.0186 +to 0.0186
Heightened Def Con from 0.0186 to 0.0186
Heightened Def Con from 0.0186 +to 0.0186
Heightened Def Con from 0.0186 +to 0.0186
Heightened Def Con from 0.0186 +to 0.0186
Heightened Def Con from 0.0186 to 0.0186
Heightened Def Con from 0.0186 to 0.0186
Heightened Def Con from 0.0186 +to 0.0186
Heightened Def Con from 0.0186 +to 0.0186
Heightened Def Con from 0.0186 ++to 0.0186
Heightened Def Con from 0.0186 +to 0.0186
Heightened Def Con from 0.0186 to 0.0186
Heightened Def Con from 0.0186 to 0.0186
Heightened Def Con from 0.0186 +to 0.0186
Heightened Def Con from 0.0186 to 0.0186
Heightened Def Con from 0.0186 +to 0.0186
Heightened Def Con from 0.0186 to 0.0186
Heightened Def Con from 0.0186 to 0.0186
Heightened Def Con from 0.0186 +to 0.0186
Heightened Def Con from 0.0186 +to 0.0186
Heightened Def Con from 0.0186 to 0.0186
Heightened Def Con from 0.0186 to 0.0186
Heightened Def Con from 0.0186 to 0.0186
Heightened Def Con from 0.0186 +to 0.0186
Heightened Def Con from 0.0186 ++to 0.0186
Heightened Def Con from 0.0186 +++to 0.0186
Heightened Def Con from 0.0186 +to 0.0186
Heightened Def Con from 0.0186 to 0.0186
Heightened Def Con from 0.0186 +to 0.0186
Heightened Def Con from 0.0186 to 0.0186
Heightened Def Con from 0.0186 to 0.0186
Heightened Def Con from 0.0186 +to 0.0186
Heightened Def Con from 0.0186 to 0.0186
Heightened Def Con from 0.0186 +to 0.0186
Heightened Def Con from 0.0186 to 0.0186
Heightened Def Con from 0.0186 to 0.0186
Heightened Def Con from 0.0186 to 0.0186
Heightened Def Con from 0.0186 to 0.0186
Heightened Def Con from 0.0186 to 0.0186
Heightened Def Con from 0.0186 +to 0.0186
Heightened Def Con from 0.0186 ++to 0.0186
Heightened Def Con from 0.0186 +to 0.0186
Heightened Def Con from 0.0186 +to 0.0186
Heightened Def Con from 0.0186 +to 0.0186
Heightened Def Con from 0.0186 to 0.0186
Heightened Def Con from 0.0186 +to 0.0186
Heightened Def Con from 0.0186 ++to 0.0186
Heightened Def Con from 0.0186 +to 0.0186
Heightened Def Con from 0.0186 +to 0.0186
Heightened Def Con from 0.0186 to 0.0186
Heightened Def Con from 0.0186 to 0.0186
Heightened Def Con from 0.0186 ++to 0.0186
Heightened Def Con from 0.0186 to 0.0186
Heightened Def Con from 0.0186 +++to 0.0186
Heightened Def Con from 0.0186 to 0.0186
Heightened Def Con from 0.0186 to 0.0186
Heightened Def Con from 0.0186 to 0.0186
Heightened Def Con from 0.0186 +to 0.0186
Heightened Def Con from 0.0186 +++to 0.0186
Heightened Def Con from 0.0186 to 0.0186
Heightened Def Con from 0.0186 to 0.0186
Heightened Def Con from 0.0186 to 0.0186
Heightened Def Con from 0.0186 +to 0.0186
Heightened Def Con from 0.0186 ++to 0.0186
Heightened Def Con from 0.0186 ++to 0.0186
Heightened Def Con from 0.0186 +to 0.0186
Heightened Def Con from 0.0186 to 0.0186
Heightened Def Con from 0.0186 +to 0.0186
Heightened Def Con from 0.0186 +to 0.0186
Heightened Def Con from 0.0186 +to 0.0186
Heightened Def Con from 0.0186 +to 0.0186
Heightened Def Con from 0.0186 to 0.0186
Heightened Def Con from 0.0186 +to 0.0186
Heightened Def Con from 0.0186 to 0.0186
Heightened Def Con from 0.0186 to 0.0186
Heightened Def Con from 0.0186 ++to 0.0186
Heightened Def Con from 0.0186 to 0.0186
Heightened Def Con from 0.0186 to 0.0186
Heightened Def Con from 0.0186 +to 0.0186
Heightened Def Con from 0.0186 to 0.0186
Heightened Def Con from 0.0186 to 0.0186
Heightened Def Con from 0.0186 to 0.0186
Heightened Def Con from 0.0186 +to 0.0186
Heightened Def Con from 0.0186 to 0.0186
Heightened Def Con from 0.0186 +to 0.0186
Heightened Def Con from 0.0186 +to 0.0186
Heightened Def Con from 0.0186 +to 0.0186
Heightened Def Con from 0.0186 ++to 0.0186
Heightened Def Con from 0.0186 to 0.0186
Heightened Def Con from 0.0186 +to 0.0186
Heightened Def Con from 0.0186 to 0.0186
Heightened Def Con from 0.0186 +to 0.0186
Heightened Def Con from 0.0186 +to 0.0186
Heightened Def Con from 0.0186 +to 0.0186
Heightened Def Con from 0.0186 +to 0.0186
Heightened Def Con from 0.0186 +to 0.0186
Heightened Def Con from 0.0186 to 0.0186
Heightened Def Con from 0.0186 +to 0.0186
Heightened Def Con from 0.0186 +to 0.0186
Heightened Def Con from 0.0186 to 0.0186
Heightened Def Con from 0.0186 to 0.0186
Heightened Def Con from 0.0186 +to 0.0186001
Heightened Def Con from 0.0186001 to 0.0186001
Heightened Def Con from 0.0186001 to 0.0186001
Heightened Def Con from 0.0186001 to 0.0186001
Heightened Def Con from 0.0186001 to 0.0186001
Heightened Def Con from 0.0186001 +to 0.0186001
Heightened Def Con from 0.0186001 to 0.0186001
Heightened Def Con from 0.0186001 +to 0.0186001
Heightened Def Con from 0.0186001 to 0.0186001
Heightened Def Con from 0.0186001 to 0.0186001
Heightened Def Con from 0.0186001 +to 0.0186001
Heightened Def Con from 0.0186001 to 0.0186001
Heightened Def Con from 0.0186001 to 0.0186001
Heightened Def Con from 0.0186001 to 0.0186001
Heightened Def Con from 0.0186001 ++to 0.0186001
Heightened Def Con from 0.0186001 to 0.0186001
Heightened Def Con from 0.0186001 +to 0.0186001
Heightened Def Con from 0.0186001 to 0.0186001
Heightened Def Con from 0.0186001 +to 0.0186001
Heightened Def Con from 0.0186001 +to 0.0186001
Heightened Def Con from 0.0186001 +to 0.0186001
Heightened Def Con from 0.0186001 to 0.0186001
Heightened Def Con from 0.0186001 to 0.0186001
Heightened Def Con from 0.0186001 to 0.0186001
Heightened Def Con from 0.0186001 +to 0.0186001
Heightened Def Con from 0.0186001 +to 0.0186001
Heightened Def Con from 0.0186001 to 0.0186001
Heightened Def Con from 0.0186001 to 0.0186001
Heightened Def Con from 0.0186001 to 0.0186001
Heightened Def Con from 0.0186001 +to 0.0186001
Heightened Def Con from 0.0186001 to 0.0186001
Heightened Def Con from 0.0186001 ++to 0.0186001
Heightened Def Con from 0.0186001 +to 0.0186001
Heightened Def Con from 0.0186001 +to 0.0186001
Heightened Def Con from 0.0186001 to 0.0186001
Heightened Def Con from 0.0186001 +to 0.0186001
Heightened Def Con from 0.0186001 +to 0.0186001
Heightened Def Con from 0.0186001 to 0.0186001
Heightened Def Con from 0.0186001 to 0.0186001
Heightened Def Con from 0.0186001 to 0.0186001
Heightened Def Con from 0.0186001 to 0.0186001
Heightened Def Con from 0.0186001 +to 0.0186001
Heightened Def Con from 0.0186001 to 0.0186001
Heightened Def Con from 0.0186001 +to 0.0186001
Heightened Def Con from 0.0186001 to 0.0186001
Heightened Def Con from 0.0186001 +to 0.0186001
Heightened Def Con from 0.0186001 to 0.0186001
Heightened Def Con from 0.0186001 to 0.0186001
Heightened Def Con from 0.0186001 to 0.0186001
Heightened Def Con from 0.0186001 +to 0.0186001
Heightened Def Con from 0.0186001 +to 0.0186001
Heightened Def Con from 0.0186001 +to 0.0186001
Heightened Def Con from 0.0186001 +to 0.0186001
Heightened Def Con from 0.0186001 +to 0.0186001
Heightened Def Con from 0.0186001 to 0.0186001
Heightened Def Con from 0.0186001 to 0.0186001
Heightened Def Con from 0.0186001 +to 0.0186001
Heightened Def Con from 0.0186001 +to 0.0186001
Heightened Def Con from 0.0186001 +to 0.0186001
Heightened Def Con from 0.0186001 +to 0.0186001
Heightened Def Con from 0.0186001 to 0.0186001
Heightened Def Con from 0.0186001 +to 0.0186001
Heightened Def Con from 0.0186001 to 0.0186001
Heightened Def Con from 0.0186001 to 0.0186001
Heightened Def Con from 0.0186001 to 0.0186001
Heightened Def Con from 0.0186001 +to 0.0186001
Heightened Def Con from 0.0186001 to 0.0186001
Heightened Def Con from 0.0186001 +to 0.0186001
Heightened Def Con from 0.0186001 to 0.0186001
Heightened Def Con from 0.0186001 to 0.0186001
Heightened Def Con from 0.0186001 ++to 0.0186001
Heightened Def Con from 0.0186001 to 0.0186001
Heightened Def Con from 0.0186001 +to 0.0186001
Heightened Def Con from 0.0186001 to 0.0186001
Heightened Def Con from 0.0186001 to 0.0186001
Heightened Def Con from 0.0186001 to 0.0186001
Heightened Def Con from 0.0186001 +to 0.0186001
Heightened Def Con from 0.0186001 to 0.0186001
Heightened Def Con from 0.0186001 ++++to 0.0186001
Heightened Def Con from 0.0188 ++to 0.0188
Heightened Def Con from 0.0188 to 0.0188
Heightened Def Con from 0.0188 to 0.0188
Heightened Def Con from 0.0188 to 0.0188
Heightened Def Con from 0.0188 +to 0.0188
Heightened Def Con from 0.0188 to 0.0188
Heightened Def Con from 0.0188 +to 0.0188
Heightened Def Con from 0.0188 to 0.0188
Heightened Def Con from 0.0188 to 0.0188
Heightened Def Con from 0.0188 ++to 0.0188
Heightened Def Con from 0.0188 to 0.0188
Heightened Def Con from 0.0188 to 0.0188
Heightened Def Con from 0.0188 +to 0.0188
Heightened Def Con from 0.0188 +to 0.0188
Heightened Def Con from 0.0188 to 0.0188
Heightened Def Con from 0.0188 +to 0.0188
Heightened Def Con from 0.0188 +to 0.0188
Heightened Def Con from 0.0188 to 0.0188
Heightened Def Con from 0.0188 to 0.0188
Heightened Def Con from 0.0188 to 0.0188
Heightened Def Con from 0.0188 +to 0.0188
Heightened Def Con from 0.0188 to 0.0188
Heightened Def Con from 0.0188 to 0.0188
Heightened Def Con from 0.0188 +to 0.0188
Heightened Def Con from 0.0188 to 0.0188
Heightened Def Con from 0.0188 +to 0.0188
Heightened Def Con from 0.0188 ++to 0.0188
Heightened Def Con from 0.0188 to 0.0188
Heightened Def Con from 0.0188 to 0.0188
Heightened Def Con from 0.0188 +to 0.0188
Heightened Def Con from 0.0188 to 0.0188
Heightened Def Con from 0.0188 ++to 0.0188
Heightened Def Con from 0.0188 to 0.0188
Heightened Def Con from 0.0188 +to 0.0188
Heightened Def Con from 0.0188 to 0.0188
Heightened Def Con from 0.0188 to 0.0188
Heightened Def Con from 0.0188 to 0.0188
Heightened Def Con from 0.0188 +to 0.0188
Heightened Def Con from 0.0188 to 0.0188
Heightened Def Con from 0.0188 to 0.0188
Heightened Def Con from 0.0188 +to 0.0188
Heightened Def Con from 0.0188 to 0.0188
Heightened Def Con from 0.0188 to 0.0188
Heightened Def Con from 0.0188 to 0.0188
Heightened Def Con from 0.0188 to 0.0188
Heightened Def Con from 0.0188 to 0.0188
Heightened Def Con from 0.0188 to 0.0188
Heightened Def Con from 0.0188 to 0.0188
Heightened Def Con from 0.0188 +to 0.0188
Heightened Def Con from 0.0188 to 0.0188
Heightened Def Con from 0.0188 +to 0.0188
Heightened Def Con from 0.0188 +to 0.0188
Heightened Def Con from 0.0188 +to 0.0188
Heightened Def Con from 0.0188 to 0.0188
Heightened Def Con from 0.0188 +to 0.0188
Heightened Def Con from 0.0188 to 0.0188
Heightened Def Con from 0.0188 ++to 0.0188
Heightened Def Con from 0.0188 to 0.0188
Heightened Def Con from 0.0188 to 0.0188
Heightened Def Con from 0.0188 to 0.0188
Heightened Def Con from 0.0188 to 0.0188
Heightened Def Con from 0.0188 +to 0.0188
Heightened Def Con from 0.0188 +to 0.0188
Heightened Def Con from 0.0188 to 0.0188
Heightened Def Con from 0.0188 to 0.0188
Heightened Def Con from 0.0188 +to 0.0188
Heightened Def Con from 0.0188 to 0.0188
Heightened Def Con from 0.0188 +to 0.0188
Heightened Def Con from 0.0188 ++to 0.0188
Heightened Def Con from 0.0188 to 0.0188
Heightened Def Con from 0.0188 +to 0.0188
Heightened Def Con from 0.0188 +to 0.0188
Heightened Def Con from 0.0188 to 0.0188
Heightened Def Con from 0.0188 +to 0.0188
Heightened Def Con from 0.0188 +to 0.0188
Heightened Def Con from 0.0188 to 0.0188
Heightened Def Con from 0.0188 to 0.0188
Heightened Def Con from 0.0188 +to 0.0188
Heightened Def Con from 0.0188 +to 0.0188
Heightened Def Con from 0.0188 +to 0.0188
Heightened Def Con from 0.0188 to 0.0188
Heightened Def Con from 0.0188 to 0.0188
Heightened Def Con from 0.0188 +to 0.0188
Heightened Def Con from 0.0188 to 0.0188
Heightened Def Con from 0.0188 +to 0.0188
Heightened Def Con from 0.0188 to 0.0188
Heightened Def Con from 0.0188 +to 0.0188
Heightened Def Con from 0.0188 +to 0.0188
Heightened Def Con from 0.0188 +to 0.0188
Heightened Def Con from 0.0188 to 0.0188
Heightened Def Con from 0.0188 to 0.0188
Heightened Def Con from 0.0188 +to 0.0188
Heightened Def Con from 0.0188 +to 0.0188
Heightened Def Con from 0.0188 +to 0.0188
Heightened Def Con from 0.0188 to 0.0188
Heightened Def Con from 0.0188 +to 0.0188
Heightened Def Con from 0.0188 to 0.0188
Heightened Def Con from 0.0188 +to 0.0188
Heightened Def Con from 0.0188 to 0.0188
Heightened Def Con from 0.0188 to 0.0188
Heightened Def Con from 0.0188 +to 0.0188
Heightened Def Con from 0.0188 +to 0.0188
Heightened Def Con from 0.0188 to 0.0188
Heightened Def Con from 0.0188 to 0.0188
Heightened Def Con from 0.0188 to 0.0188
Heightened Def Con from 0.0188 to 0.0188
Heightened Def Con from 0.0188 +to 0.0188
Heightened Def Con from 0.0188 to 0.0188
Heightened Def Con from 0.0188 to 0.0188
Heightened Def Con from 0.0188 ++to 0.0188
Heightened Def Con from 0.0188 to 0.0188
Heightened Def Con from 0.0188 +to 0.0188
Heightened Def Con from 0.0188 to 0.0188
Heightened Def Con from 0.0188 +to 0.0188
Heightened Def Con from 0.0188 to 0.0188
Heightened Def Con from 0.0188 to 0.0188
Heightened Def Con from 0.0188 to 0.0188
Heightened Def Con from 0.0188 to 0.0188
Heightened Def Con from 0.0188 +to 0.0188
Heightened Def Con from 0.0188 to 0.0188
Heightened Def Con from 0.0188 +to 0.0188
Heightened Def Con from 0.0188 to 0.0188
Heightened Def Con from 0.0188 to 0.0188
Heightened Def Con from 0.0188 +to 0.0188
Heightened Def Con from 0.0188 +to 0.0188
Heightened Def Con from 0.0188 ++to 0.0188
Heightened Def Con from 0.0188 +to 0.0188
Heightened Def Con from 0.0188 +to 0.0188
Heightened Def Con from 0.0188 to 0.0188
Heightened Def Con from 0.0188 +to 0.0188
Heightened Def Con from 0.0188 +to 0.0188
Heightened Def Con from 0.0188 to 0.0188
Heightened Def Con from 0.0188 +to 0.0188
Heightened Def Con from 0.0188 to 0.0188
Heightened Def Con from 0.0188 to 0.0188
Heightened Def Con from 0.0188 +to 0.0188
Heightened Def Con from 0.0188 +to 0.0188
Heightened Def Con from 0.0188 +to 0.0188
Heightened Def Con from 0.0188 +to 0.0188
Heightened Def Con from 0.0188 +to 0.0188
Heightened Def Con from 0.0188 to 0.0188
Heightened Def Con from 0.0188 to 0.0188
Heightened Def Con from 0.0188 to 0.0188
Heightened Def Con from 0.0188 +to 0.0188
Heightened Def Con from 0.0188 to 0.0188
Heightened Def Con from 0.0188 +to 0.0188
Heightened Def Con from 0.0188 to 0.0188
Heightened Def Con from 0.0188 to 0.0188
Heightened Def Con from 0.0188 +to 0.0188
Heightened Def Con from 0.0188 +to 0.0188
Heightened Def Con from 0.0188 to 0.0188
Heightened Def Con from 0.0188 to 0.0188
Heightened Def Con from 0.0188 to 0.0188
Heightened Def Con from 0.0188 to 0.0188
Heightened Def Con from 0.0188 +to 0.0188
Heightened Def Con from 0.0188 +to 0.0188
Heightened Def Con from 0.0188 to 0.0188
Heightened Def Con from 0.0188 +to 0.0188
Heightened Def Con from 0.0188 +to 0.0188
Heightened Def Con from 0.0188 +to 0.0188
Heightened Def Con from 0.0188 +to 0.0188
Heightened Def Con from 0.0188 +to 0.0188
Heightened Def Con from 0.0188 to 0.0188
Heightened Def Con from 0.0188 to 0.0188
Heightened Def Con from 0.0188 to 0.0188
Heightened Def Con from 0.0188 to 0.0188
Heightened Def Con from 0.0188 to 0.0188
Heightened Def Con from 0.0188 to 0.0188
Heightened Def Con from 0.0188 ++to 0.0188
Heightened Def Con from 0.0188 to 0.0188
Heightened Def Con from 0.0188 +to 0.0188
Heightened Def Con from 0.0188 +to 0.0188
Heightened Def Con from 0.0188 to 0.0188
Heightened Def Con from 0.0188 to 0.0188
Heightened Def Con from 0.0188 +to 0.0188
Heightened Def Con from 0.0188 to 0.0188
Heightened Def Con from 0.0188 +to 0.0188
Heightened Def Con from 0.0188 +to 0.0188
Heightened Def Con from 0.0188 +to 0.0188
Heightened Def Con from 0.0188001 to 0.0188001
Heightened Def Con from 0.0188001 +to 0.0188001
Heightened Def Con from 0.0188001 +to 0.0188001
Heightened Def Con from 0.0188001 +to 0.0188001
Heightened Def Con from 0.0188001 +to 0.0188001
Heightened Def Con from 0.0188001 to 0.0188001
Heightened Def Con from 0.0188001 +to 0.0188001
Heightened Def Con from 0.0188001 to 0.0188001
Heightened Def Con from 0.0188001 +to 0.0188001
Heightened Def Con from 0.0188001 to 0.0188001
Heightened Def Con from 0.0188001 to 0.0188001
Heightened Def Con from 0.0188001 +to 0.0188001
Heightened Def Con from 0.0188001 to 0.0188001
Heightened Def Con from 0.0188001 +to 0.0188001
Heightened Def Con from 0.0188001 +to 0.0188001
Heightened Def Con from 0.0188001 +to 0.0188001
Heightened Def Con from 0.0188001 to 0.0188001
Heightened Def Con from 0.0188001 to 0.0188001
Heightened Def Con from 0.0188001 +++to 0.0188001
Heightened Def Con from 0.0188001 +to 0.0188001
Heightened Def Con from 0.0188001 +to 0.0188001
Heightened Def Con from 0.0188001 +to 0.0188001
Heightened Def Con from 0.0188001 to 0.0188001
Heightened Def Con from 0.0188001 to 0.0188001
Heightened Def Con from 0.0188001 +to 0.0188001
Heightened Def Con from 0.0188001 to 0.0188001
Heightened Def Con from 0.0188001 +to 0.0188001
Heightened Def Con from 0.0188001 to 0.0188001
Heightened Def Con from 0.0188001 to 0.0188001
Heightened Def Con from 0.0188001 +to 0.0188001
Heightened Def Con from 0.0188001 to 0.0188001
Heightened Def Con from 0.0188001 +to 0.0188001
Heightened Def Con from 0.0188001 to 0.0188001
Heightened Def Con from 0.0188001 to 0.0188001
Heightened Def Con from 0.0188001 to 0.0188001
Heightened Def Con from 0.0188001 to 0.0188001
Heightened Def Con from 0.0188001 +to 0.0188001
Heightened Def Con from 0.0188001 to 0.0188001
Heightened Def Con from 0.0188001 +to 0.0188001
Heightened Def Con from 0.0188001 +to 0.0188001
Heightened Def Con from 0.0188001 +to 0.0188001
Heightened Def Con from 0.0188001 +to 0.0188001
Heightened Def Con from 0.0188001 +to 0.0188001
Heightened Def Con from 0.0188001 to 0.0188001
Heightened Def Con from 0.0188001 to 0.0188001
Heightened Def Con from 0.0188001 +to 0.0188001
Heightened Def Con from 0.0188001 +to 0.0188001
Heightened Def Con from 0.0188001 to 0.0188001
Heightened Def Con from 0.0188001 to 0.0188001
Heightened Def Con from 0.0188001 to 0.0188001
Heightened Def Con from 0.0188001 to 0.0188001
Heightened Def Con from 0.0188001 ++to 0.0188001
Heightened Def Con from 0.0188001 to 0.0188001
Heightened Def Con from 0.0188001 to 0.0188001
Heightened Def Con from 0.0188001 to 0.0188001
Heightened Def Con from 0.0188001 +to 0.0188001
Heightened Def Con from 0.0188001 +to 0.0188001
Heightened Def Con from 0.0188001 +to 0.0188001
Heightened Def Con from 0.0188001 to 0.0188001
Heightened Def Con from 0.0188001 to 0.0188001
Heightened Def Con from 0.0188001 +to 0.0188001
Heightened Def Con from 0.0188001 +to 0.0188001
Heightened Def Con from 0.0188001 +to 0.0188001
Heightened Def Con from 0.0188001 +to 0.0188001
Heightened Def Con from 0.0188001 +to 0.0188001
Heightened Def Con from 0.0188001 +to 0.0188001
Heightened Def Con from 0.0188001 +to 0.0188001
Heightened Def Con from 0.0188001 to 0.0188001
Heightened Def Con from 0.0188001 +to 0.0188001
Heightened Def Con from 0.0188001 to 0.0188001
Heightened Def Con from 0.0188001 +to 0.0188001
Heightened Def Con from 0.0188001 to 0.0188001
Heightened Def Con from 0.0188001 to 0.0188001
Heightened Def Con from 0.0188001 to 0.0188001
Heightened Def Con from 0.0188001 to 0.0188001
Heightened Def Con from 0.0188001 +to 0.0188001
Heightened Def Con from 0.0188001 +to 0.0188001
Heightened Def Con from 0.0188001 to 0.0188001
Heightened Def Con from 0.0188001 +to 0.0188001
Heightened Def Con from 0.0188001 to 0.0188001
Heightened Def Con from 0.0188001 to 0.0188001
Heightened Def Con from 0.0188001 +to 0.0188001
Heightened Def Con from 0.0188001 +to 0.0188001
Heightened Def Con from 0.0188001 to 0.0188001
Heightened Def Con from 0.0188001 ++to 0.0188001
Heightened Def Con from 0.0188001 to 0.0188001
Heightened Def Con from 0.0188001 to 0.0188001
Heightened Def Con from 0.0188001 to 0.0188001
Heightened Def Con from 0.0188001 +to 0.0188001
Heightened Def Con from 0.0188001 +to 0.0188001
Heightened Def Con from 0.0188001 