Circuit: * C:\Users\Regan\OneDrive\Documents\GitHub\Team7\310\310_Phase3.asc

Early termination of direct N-R iteration.
Direct Newton iteration failed to find .op point.  (Use ".option noopiter" to skip.)
Starting Gmin stepping
Increasing initial diagonal Gmin to 100
Gmin = 100
vernier = 0.5
Gmin = 18.6414
vernier = 0.25
vernier = 0.125
vernier = 0.0625
vernier = 0.03125
Gmin = 19.4331
vernier = 0.015625
vernier = 0.0078125
vernier = 0.00390625
vernier = 0.00195313
Gmin = 19.5276
vernier = 0.000976563
vernier = 0.000488281
Gmin = 0
Gmin stepping failed

Starting source stepping with srcstepmethod=0
Source Step = 3.0303%
Source Step = 33.3333%
Source Step = 63.6364%
Source Step = 93.9394%
Source stepping succeeded in finding the operating point.

Changing Tseed to 1e-013
Changing Tseed to 1e-015
Changing Tseed to 1e-012

Date: Mon Apr 22 12:55:13 2024
Total elapsed time: 59.074 seconds.

tnom = 27
temp = 27
method = modified trap
totiter = 2070678
traniter = 2068603
tranpoints = 506753
accept = 364890
rejected = 141860
matrix size = 197
fillins = 1580
solver = Normal
Thread vector: 10.3/7.8[4] 4.8/3.5[4] 4.2/3.0[4] 0.9/1.7[1]  2592/500
Matrix Compiler1: 235.97 KB object code size  34.0/11.8/[9.0]
Matrix Compiler2: 42.13 KB object code size  3.2/2.5/[1.7]

