Circuit: * C:\Users\Regan\OneDrive\Documents\GitHub\Team7\310\310_Phase2_origional_draft.asc

Early termination of direct N-R iteration.
Direct Newton iteration failed to find .op point.  (Use ".option noopiter" to skip.)
Starting Gmin stepping
Increasing initial diagonal Gmin to 100
Gmin = 100
vernier = 0.5
Gmin = 18.6414
vernier = 0.25
vernier = 0.125
vernier = 0.0625
vernier = 0.03125
Gmin = 19.4331
vernier = 0.015625
vernier = 0.0078125
vernier = 0.00390625
vernier = 0.00195313
Gmin = 19.5276
vernier = 0.000976563
vernier = 0.000488281
Gmin = 0
Gmin stepping failed

Starting source stepping with srcstepmethod=0
Source Step = 3.0303%
Source Step = 33.3333%
Source Step = 63.6364%
Source Step = 93.9394%
Source stepping succeeded in finding the operating point.


Date: Wed Apr 03 22:02:49 2024
Total elapsed time: 0.302 seconds.

tnom = 27
temp = 27
method = modified trap
totiter = 9521
traniter = 7700
tranpoints = 2393
accept = 1920
rejected = 473
matrix size = 53
fillins = 277
solver = Normal
Matrix Compiler1: 22.23 KB object code size  5.8/3.4/[2.7]
Matrix Compiler2:     630 opcodes  1.1/[1.1]/1.3

