Circuit: * C:\Users\Regan\OneDrive\Documents\GitHub\Team7\310\wave generator.asc

Early termination of direct N-R iteration.
Direct Newton iteration failed to find .op point.  (Use ".option noopiter" to skip.)
Starting Gmin stepping
Increasing initial diagonal Gmin to 100
Gmin = 100
vernier = 0.5
Gmin = 18.6414
vernier = 0.25
vernier = 0.125
vernier = 0.0625
vernier = 0.03125
Gmin = 19.4331
vernier = 0.015625
vernier = 0.0078125
vernier = 0.00390625
vernier = 0.00195313
Gmin = 19.5276
vernier = 0.000976563
vernier = 0.000488281
Gmin = 0
Gmin stepping failed

Starting source stepping with srcstepmethod=0
Source Step = 3.0303%
Source Step = 33.3333%
Source Step = 63.6364%
Source Step = 93.9394%
Source stepping succeeded in finding the operating point.


Date: Wed Apr 17 15:30:23 2024
Total elapsed time: 12.440 seconds.

tnom = 27
temp = 27
method = modified trap
totiter = 748467
traniter = 746656
tranpoints = 194846
accept = 135315
rejected = 59531
matrix size = 64
fillins = 290
solver = Normal
Matrix Compiler1: 28.57 KB object code size  8.0/4.5/[3.4]
Matrix Compiler2: 10.24 KB object code size  1.2/1.5/[1.3]

